
Spectre (R) Circuit Simulator
Version 19.1.0.578.isr15 64bit -- 27 Jan 2021
Copyright (C) 1989-2020 Cadence Design Systems, Inc. All rights reserved worldwide. Cadence and Spectre are registered trademarks of Cadence Design Systems, Inc. All others are the property of their respective holders.

Includes RSA BSAFE(R) Cryptographic or Security Protocol Software from RSA Security, Inc.

User: gabriel.jacinto   Host: virmic01   HostID: A296C20A   PID: 1661862
Memory  available: 263.1434 MB  physical: 3.9992 GB
Linux   : Rocky Linux release 8.5 (Green Obsidian)
CPU Type: Intel(R) Core(TM) i3-3240 CPU @ 3.40GHz
        Socket: Processors [Frequency] (Hyperthreaded Processor)
        0:       0 [3400.0] (  2 ),  1 [3359.3] (  3 )
        
System load averages (1min, 5min, 15min) : 9.5 %, 22.5 %, 18.5 %
Hyperthreading is enabled


Simulating `inverter.sp' on virmic01 at 7:02:20 PM, Thur May 25, 2023 (process id: 1661862).
Current working directory: /home/100000000981355/Desktop/PIC2020/FINFET/7nm/NOT/Data/sim1
Environment variable:
    SPECTRE_DEFAULTS=-E
Command line:
    /usr/eda/cadence/spectre1910_578/tools.lnx86/bin/spectre -64  \
        -outdir teste_spectre inverter.sp

Loading /usr/eda/cadence/spectre1910_578/tools.lnx86/cmi/lib/64bit/5.0/libinfineon_sh.so ...
Loading /usr/eda/cadence/spectre1910_578/tools.lnx86/cmi/lib/64bit/5.0/libphilips_o_sh.so ...
Loading /usr/eda/cadence/spectre1910_578/tools.lnx86/cmi/lib/64bit/5.0/libphilips_sh.so ...
Loading /usr/eda/cadence/spectre1910_578/tools.lnx86/cmi/lib/64bit/5.0/libsparam_sh.so ...
Loading /usr/eda/cadence/spectre1910_578/tools.lnx86/cmi/lib/64bit/5.0/libstmodels_sh.so ...
Reading file:  /home/100000000981355/Desktop/PIC2020/FINFET/7nm/NOT/Data/sim1/inverter.sp
Reading file:  /usr/eda/cadence/spectre1910_578/tools.lnx86/spectre/etc/configs/spectre.cfg
Reading file:  /usr/include/stdc-predef.h
Reading file:  /home/100000000981355/Desktop/PIC2020/FINFET/7nm/NOT/Data/lib/FET_TT.pm
Reading file:  /home/100000000981355/Desktop/PIC2020/FINFET/7nm/NOT/Data/sim1/var.sp
Time for NDB Parsing: CPU = 91.919 ms, elapsed = 713.144 ms.
Time accumulated: CPU = 136.875 ms, elapsed = 713.148 ms.
Peak resident memory used = 101 Mbytes.

Time for Elaboration: CPU = 25.624 ms, elapsed = 26.216 ms.
Time accumulated: CPU = 162.67 ms, elapsed = 739.534 ms.
Peak resident memory used = 111 Mbytes.

Loading /usr/eda/cadence/spectre1910_578/tools.lnx86/spectre/lib/64bit/mdl/libSpectreEH_sh.so ...

Time for EDB Visiting: CPU = 35.357 ms, elapsed = 37.003 ms.
Time accumulated: CPU = 198.247 ms, elapsed = 776.754 ms.
Peak resident memory used = 122 Mbytes.


Global user options:
               save = all

Scoped user options:

Circuit inventory:
              nodes 3
            bsimcmg 2     
          capacitor 1     
            vsource 2     

Analysis and control statement inventory:
         montecarlo 1     
              sweep 1     
               tran 1     

Output statements:
             .probe 0     
           .measure 4     
               save 0     

Time for parsing: CPU = 2.747 ms, elapsed = 65.7868 ms.
Time accumulated: CPU = 201.191 ms, elapsed = 842.744 ms.
Peak resident memory used = 125 Mbytes.

~~~~~~~~~~~~~~~~~~~~~~
Pre-Simulation Summary
~~~~~~~~~~~~~~~~~~~~~~
~~~~~~~~~~~~~~~~~~~~~~


************************************************
MDL montecarlo analysis: iteration = (1 -> 50).
************************************************
Important parameter values:
    seed = 1234
    sampling = standard
    variations = process
    ignoremode = default
    firstrun = 1
    numruns = 50
    nullmfactorcorrelation = no
    donominal = yes
    method = standard

**** Performing nominal run for MDL montecarlo.

*****************************************************************
Transient Analysis `transient1_transient1': time = (0 s -> 40 ns)
*****************************************************************

Opening the PSFXL file teste_spectre/inverter.raw/transient1_transient1.tran.tran ...
DC simulation time: CPU = 453 us, elapsed = 464.916 us.
Important parameter values:
    start = 0 s
    outputstart = 0 s
    stop = 40 ns
    step = 40 ps
    maxstep = 800 ps
    ic = all
    useprevic = no
    skipdc = no
    reltol = 1e-03
    abstol(V) = 1 uV
    abstol(I) = 1 pA
    temp = -25 C
    tnom = 27 C
    tempeffects = all
    errpreset = moderate
    method = trap
    lteratio = 3.5
    relref = sigglobal
    cmin = 0 F
    gmin = 1 pS


Output and IC/nodeset summary:
                 probe  12      
                 save   2       (current)
                 save   3       (voltage)

.................9.................8.................7.................6.................5.................4.................3.................2.................1.................0
Number of accepted tran steps =             133

Maximum value achieved for any signal of each quantity: 
V: V(Z) = 710.2 mV
I: I(VX:p) = 36.08 uA
If your circuit contains signals of the same quantity that are vastly different in size (such as high voltage circuitry combined with low voltage control circuitry), you should consider specifying global option `bin_relref=yes'.

~~~~~~~~~~~~~~~~~~~~~~~~~~~~~~~~~
Post-Transient Simulation Summary
~~~~~~~~~~~~~~~~~~~~~~~~~~~~~~~~~
   -   To further speed up simulation, consider
          add ++aps on command line
~~~~~~~~~~~~~~~~~~~~~~~~~~~~~~~~~


During simulation, the CPU load for active processors is :
         0 (62.9 %)      1 (63.3 %)      2 (69.7 %)      3 (62.9 %)
        Total: 258.8%
Initial condition solution time: CPU = 553 us, elapsed = 567.198 us.
Intrinsic tran analysis time:    CPU = 21.322 ms, elapsed = 73.5261 ms.
Total time required for tran analysis `transient1_transient1': CPU = 24.373 ms, elapsed = 76.6082 ms.
Time accumulated: CPU = 237.896 ms, elapsed = 1.08432 s.
Peak resident memory used = 129 Mbytes.


*****************************************************************
Transient Analysis `transient1_transient1': time = (0 s -> 40 ns)
*****************************************************************

Opening the PSFXL file teste_spectre/inverter.raw/transient1_transient1.tran.tran ...
DC simulation time: CPU = 291 us, elapsed = 290.871 us.
Important parameter values:
    start = 0 s
    outputstart = 0 s
    stop = 40 ns
    step = 40 ps
    maxstep = 800 ps
    ic = all
    useprevic = no
    skipdc = no
    reltol = 1e-03
    abstol(V) = 1 uV
    abstol(I) = 1 pA
    temp = -25 C
    tnom = 27 C
    tempeffects = all
    errpreset = moderate
    method = trap
    lteratio = 3.5
    relref = sigglobal
    cmin = 0 F
    gmin = 1 pS


Output and IC/nodeset summary:
                 probe  12      
                 save   2       (current)
                 save   3       (voltage)

.................9.................8.................7.................6.................5.................4.................3.................2.................1.................0
Number of accepted tran steps =             125

Maximum value achieved for any signal of each quantity: 
V: V(Z) = 710.1 mV
I: I(VX:p) = 39.74 uA
If your circuit contains signals of the same quantity that are vastly different in size (such as high voltage circuitry combined with low voltage control circuitry), you should consider specifying global option `bin_relref=yes'.

~~~~~~~~~~~~~~~~~~~~~~~~~~~~~~~~~
Post-Transient Simulation Summary
~~~~~~~~~~~~~~~~~~~~~~~~~~~~~~~~~
   -   To further speed up simulation, consider
          add ++aps on command line
~~~~~~~~~~~~~~~~~~~~~~~~~~~~~~~~~


During simulation, the CPU load for active processors is :
         0 (65.7 %)      1 (65.3 %)      2 (71.1 %)      3 (64.9 %)
        Total: 267.0%
Initial condition solution time: CPU = 360 us, elapsed = 361.919 us.
Intrinsic tran analysis time:    CPU = 19.576 ms, elapsed = 48.7912 ms.
Total time required for tran analysis `transient1_transient1': CPU = 22.035 ms, elapsed = 51.563 ms.
Time accumulated: CPU = 263.143 ms, elapsed = 1.16356 s.
Peak resident memory used = 131 Mbytes.

         MDL montecarlo: iteration = 1   ( 2.00% ) complete.

*****************************************************************
Transient Analysis `transient1_transient1': time = (0 s -> 40 ns)
*****************************************************************

Opening the PSFXL file teste_spectre/inverter.raw/transient1_transient1.tran.tran ...
DC simulation time: CPU = 340 us, elapsed = 340.939 us.
Important parameter values:
    start = 0 s
    outputstart = 0 s
    stop = 40 ns
    step = 40 ps
    maxstep = 800 ps
    ic = all
    useprevic = no
    skipdc = no
    reltol = 1e-03
    abstol(V) = 1 uV
    abstol(I) = 1 pA
    temp = -25 C
    tnom = 27 C
    tempeffects = all
    errpreset = moderate
    method = trap
    lteratio = 3.5
    relref = sigglobal
    cmin = 0 F
    gmin = 1 pS


Output and IC/nodeset summary:
                 probe  12      
                 save   2       (current)
                 save   3       (voltage)

.................9.................8.................7.................6.................5.................4.................3.................2.................1.................0
Number of accepted tran steps =             132

Maximum value achieved for any signal of each quantity: 
V: V(Z) = 710 mV
I: I(VX:p) = 41.31 uA
If your circuit contains signals of the same quantity that are vastly different in size (such as high voltage circuitry combined with low voltage control circuitry), you should consider specifying global option `bin_relref=yes'.

~~~~~~~~~~~~~~~~~~~~~~~~~~~~~~~~~
Post-Transient Simulation Summary
~~~~~~~~~~~~~~~~~~~~~~~~~~~~~~~~~
   -   To further speed up simulation, consider
          add ++aps on command line
~~~~~~~~~~~~~~~~~~~~~~~~~~~~~~~~~


During simulation, the CPU load for active processors is :
         0 (67.0 %)      1 (66.7 %)      2 (72.6 %)      3 (67.6 %)
        Total: 273.9%
Initial condition solution time: CPU = 428 us, elapsed = 429.869 us.
Intrinsic tran analysis time:    CPU = 20.214 ms, elapsed = 49.9709 ms.
Total time required for tran analysis `transient1_transient1': CPU = 22.947 ms, elapsed = 52.7232 ms.
Time accumulated: CPU = 289.16 ms, elapsed = 1.25654 s.
Peak resident memory used = 131 Mbytes.

         MDL montecarlo: iteration = 2   ( 4.00% ) complete.

*****************************************************************
Transient Analysis `transient1_transient1': time = (0 s -> 40 ns)
*****************************************************************

Opening the PSFXL file teste_spectre/inverter.raw/transient1_transient1.tran.tran ...
DC simulation time: CPU = 316 us, elapsed = 315.905 us.
Important parameter values:
    start = 0 s
    outputstart = 0 s
    stop = 40 ns
    step = 40 ps
    maxstep = 800 ps
    ic = all
    useprevic = no
    skipdc = no
    reltol = 1e-03
    abstol(V) = 1 uV
    abstol(I) = 1 pA
    temp = -25 C
    tnom = 27 C
    tempeffects = all
    errpreset = moderate
    method = trap
    lteratio = 3.5
    relref = sigglobal
    cmin = 0 F
    gmin = 1 pS


Output and IC/nodeset summary:
                 probe  12      
                 save   2       (current)
                 save   3       (voltage)

.................9.................8.................7.................6.................5.................4.................3.................2.................1.................0
Number of accepted tran steps =             117

Maximum value achieved for any signal of each quantity: 
V: V(Z) = 707.6 mV
I: I(VX:p) = 39.58 uA
If your circuit contains signals of the same quantity that are vastly different in size (such as high voltage circuitry combined with low voltage control circuitry), you should consider specifying global option `bin_relref=yes'.

~~~~~~~~~~~~~~~~~~~~~~~~~~~~~~~~~
Post-Transient Simulation Summary
~~~~~~~~~~~~~~~~~~~~~~~~~~~~~~~~~
   -   To further speed up simulation, consider
          add ++aps on command line
~~~~~~~~~~~~~~~~~~~~~~~~~~~~~~~~~


During simulation, the CPU load for active processors is :
         0 (68.4 %)      1 (68.1 %)      2 (73.7 %)      3 (69.6 %)
        Total: 279.7%
Initial condition solution time: CPU = 383 us, elapsed = 385.046 us.
Intrinsic tran analysis time:    CPU = 16.612 ms, elapsed = 54.7681 ms.
Total time required for tran analysis `transient1_transient1': CPU = 19.197 ms, elapsed = 57.358 ms.
Time accumulated: CPU = 311.414 ms, elapsed = 1.34473 s.
Peak resident memory used = 131 Mbytes.

         MDL montecarlo: iteration = 3   ( 6.00% ) complete.

*****************************************************************
Transient Analysis `transient1_transient1': time = (0 s -> 40 ns)
*****************************************************************

Opening the PSFXL file teste_spectre/inverter.raw/transient1_transient1.tran.tran ...
DC simulation time: CPU = 283 us, elapsed = 283.957 us.
Important parameter values:
    start = 0 s
    outputstart = 0 s
    stop = 40 ns
    step = 40 ps
    maxstep = 800 ps
    ic = all
    useprevic = no
    skipdc = no
    reltol = 1e-03
    abstol(V) = 1 uV
    abstol(I) = 1 pA
    temp = -25 C
    tnom = 27 C
    tempeffects = all
    errpreset = moderate
    method = trap
    lteratio = 3.5
    relref = sigglobal
    cmin = 0 F
    gmin = 1 pS


Output and IC/nodeset summary:
                 probe  12      
                 save   2       (current)
                 save   3       (voltage)

.................9.................8.................7.................6.................5.................4.................3.................2.................1.................0
Number of accepted tran steps =             119

Maximum value achieved for any signal of each quantity: 
V: V(Z) = 711.5 mV
I: I(VX:p) = 40.03 uA
If your circuit contains signals of the same quantity that are vastly different in size (such as high voltage circuitry combined with low voltage control circuitry), you should consider specifying global option `bin_relref=yes'.

~~~~~~~~~~~~~~~~~~~~~~~~~~~~~~~~~
Post-Transient Simulation Summary
~~~~~~~~~~~~~~~~~~~~~~~~~~~~~~~~~
   -   To further speed up simulation, consider
          add ++aps on command line
~~~~~~~~~~~~~~~~~~~~~~~~~~~~~~~~~


During simulation, the CPU load for active processors is :
         0 (70.9 %)      1 (70.9 %)      2 (76.0 %)      3 (72.0 %)
        Total: 289.7%
Initial condition solution time: CPU = 340 us, elapsed = 341.892 us.
Intrinsic tran analysis time:    CPU = 17.456 ms, elapsed = 52.469 ms.
Total time required for tran analysis `transient1_transient1': CPU = 19.667 ms, elapsed = 54.6892 ms.
Time accumulated: CPU = 333.915 ms, elapsed = 1.45031 s.
Peak resident memory used = 131 Mbytes.

         MDL montecarlo: iteration = 4   ( 8.00% ) complete.

*****************************************************************
Transient Analysis `transient1_transient1': time = (0 s -> 40 ns)
*****************************************************************

Opening the PSFXL file teste_spectre/inverter.raw/transient1_transient1.tran.tran ...
DC simulation time: CPU = 356 us, elapsed = 366.211 us.
Important parameter values:
    start = 0 s
    outputstart = 0 s
    stop = 40 ns
    step = 40 ps
    maxstep = 800 ps
    ic = all
    useprevic = no
    skipdc = no
    reltol = 1e-03
    abstol(V) = 1 uV
    abstol(I) = 1 pA
    temp = -25 C
    tnom = 27 C
    tempeffects = all
    errpreset = moderate
    method = trap
    lteratio = 3.5
    relref = sigglobal
    cmin = 0 F
    gmin = 1 pS


Output and IC/nodeset summary:
                 probe  12      
                 save   2       (current)
                 save   3       (voltage)

.................9.................8.................7.................6.................5.................4.................3.................2.................1.................0
Number of accepted tran steps =             132

Maximum value achieved for any signal of each quantity: 
V: V(Z) = 710.9 mV
I: I(VX:p) = 32.04 uA
If your circuit contains signals of the same quantity that are vastly different in size (such as high voltage circuitry combined with low voltage control circuitry), you should consider specifying global option `bin_relref=yes'.

~~~~~~~~~~~~~~~~~~~~~~~~~~~~~~~~~
Post-Transient Simulation Summary
~~~~~~~~~~~~~~~~~~~~~~~~~~~~~~~~~
   -   To further speed up simulation, consider
          add ++aps on command line
~~~~~~~~~~~~~~~~~~~~~~~~~~~~~~~~~


During simulation, the CPU load for active processors is :
         0 (71.9 %)      1 (72.5 %)      2 (76.5 %)      3 (73.5 %)
        Total: 294.4%
Initial condition solution time: CPU = 455 us, elapsed = 467.062 us.
Intrinsic tran analysis time:    CPU = 20.728 ms, elapsed = 68.202 ms.
Total time required for tran analysis `transient1_transient1': CPU = 23.33 ms, elapsed = 70.821 ms.
Time accumulated: CPU = 360.526 ms, elapsed = 1.56725 s.
Peak resident memory used = 131 Mbytes.

         MDL montecarlo: iteration = 5   ( 10.00% ) complete.

*****************************************************************
Transient Analysis `transient1_transient1': time = (0 s -> 40 ns)
*****************************************************************

Opening the PSFXL file teste_spectre/inverter.raw/transient1_transient1.tran.tran ...
DC simulation time: CPU = 290 us, elapsed = 290.871 us.
Important parameter values:
    start = 0 s
    outputstart = 0 s
    stop = 40 ns
    step = 40 ps
    maxstep = 800 ps
    ic = all
    useprevic = no
    skipdc = no
    reltol = 1e-03
    abstol(V) = 1 uV
    abstol(I) = 1 pA
    temp = -25 C
    tnom = 27 C
    tempeffects = all
    errpreset = moderate
    method = trap
    lteratio = 3.5
    relref = sigglobal
    cmin = 0 F
    gmin = 1 pS


Output and IC/nodeset summary:
                 probe  12      
                 save   2       (current)
                 save   3       (voltage)

.................9.................8.................7.................6.................5.................4.................3.................2.................1.................0
Number of accepted tran steps =             117

Maximum value achieved for any signal of each quantity: 
V: V(Z) = 706.9 mV
I: I(VX:p) = 45.92 uA
If your circuit contains signals of the same quantity that are vastly different in size (such as high voltage circuitry combined with low voltage control circuitry), you should consider specifying global option `bin_relref=yes'.

~~~~~~~~~~~~~~~~~~~~~~~~~~~~~~~~~
Post-Transient Simulation Summary
~~~~~~~~~~~~~~~~~~~~~~~~~~~~~~~~~
   -   To further speed up simulation, consider
          add ++aps on command line
~~~~~~~~~~~~~~~~~~~~~~~~~~~~~~~~~


During simulation, the CPU load for active processors is :
         0 (71.8 %)      1 (72.3 %)      2 (76.7 %)      3 (75.3 %)
        Total: 296.2%
Initial condition solution time: CPU = 352 us, elapsed = 353.813 us.
Intrinsic tran analysis time:    CPU = 20.972 ms, elapsed = 58.603 ms.
Total time required for tran analysis `transient1_transient1': CPU = 23.494 ms, elapsed = 61.136 ms.
Time accumulated: CPU = 387.342 ms, elapsed = 1.66593 s.
Peak resident memory used = 131 Mbytes.

         MDL montecarlo: iteration = 6   ( 12.00% ) complete.

*****************************************************************
Transient Analysis `transient1_transient1': time = (0 s -> 40 ns)
*****************************************************************

Opening the PSFXL file teste_spectre/inverter.raw/transient1_transient1.tran.tran ...
DC simulation time: CPU = 304 us, elapsed = 304.222 us.
Important parameter values:
    start = 0 s
    outputstart = 0 s
    stop = 40 ns
    step = 40 ps
    maxstep = 800 ps
    ic = all
    useprevic = no
    skipdc = no
    reltol = 1e-03
    abstol(V) = 1 uV
    abstol(I) = 1 pA
    temp = -25 C
    tnom = 27 C
    tempeffects = all
    errpreset = moderate
    method = trap
    lteratio = 3.5
    relref = sigglobal
    cmin = 0 F
    gmin = 1 pS


Output and IC/nodeset summary:
                 probe  12      
                 save   2       (current)
                 save   3       (voltage)

.................9.................8.................7.................6.................5.................4.................3.................2.................1.................0
Number of accepted tran steps =             127

Maximum value achieved for any signal of each quantity: 
V: V(Z) = 711.6 mV
I: I(VX:p) = 37.73 uA
If your circuit contains signals of the same quantity that are vastly different in size (such as high voltage circuitry combined with low voltage control circuitry), you should consider specifying global option `bin_relref=yes'.

~~~~~~~~~~~~~~~~~~~~~~~~~~~~~~~~~
Post-Transient Simulation Summary
~~~~~~~~~~~~~~~~~~~~~~~~~~~~~~~~~
   -   To further speed up simulation, consider
          add ++aps on command line
~~~~~~~~~~~~~~~~~~~~~~~~~~~~~~~~~


During simulation, the CPU load for active processors is :
         0 (72.3 %)      1 (72.8 %)      2 (77.7 %)      3 (76.4 %)
        Total: 299.3%
Initial condition solution time: CPU = 374 us, elapsed = 376.94 us.
Intrinsic tran analysis time:    CPU = 20.651 ms, elapsed = 56.3042 ms.
Total time required for tran analysis `transient1_transient1': CPU = 23.104 ms, elapsed = 58.995 ms.
Time accumulated: CPU = 413.624 ms, elapsed = 1.76602 s.
Peak resident memory used = 131 Mbytes.

         MDL montecarlo: iteration = 7   ( 14.00% ) complete.

*****************************************************************
Transient Analysis `transient1_transient1': time = (0 s -> 40 ns)
*****************************************************************

Opening the PSFXL file teste_spectre/inverter.raw/transient1_transient1.tran.tran ...
DC simulation time: CPU = 269 us, elapsed = 270.128 us.
Important parameter values:
    start = 0 s
    outputstart = 0 s
    stop = 40 ns
    step = 40 ps
    maxstep = 800 ps
    ic = all
    useprevic = no
    skipdc = no
    reltol = 1e-03
    abstol(V) = 1 uV
    abstol(I) = 1 pA
    temp = -25 C
    tnom = 27 C
    tempeffects = all
    errpreset = moderate
    method = trap
    lteratio = 3.5
    relref = sigglobal
    cmin = 0 F
    gmin = 1 pS


Output and IC/nodeset summary:
                 probe  12      
                 save   2       (current)
                 save   3       (voltage)

.................9.................8.................7.................6.................5.................4.................3.................2.................1.................0
Number of accepted tran steps =             126

Maximum value achieved for any signal of each quantity: 
V: V(Z) = 708.6 mV
I: I(VX:p) = 39.05 uA
If your circuit contains signals of the same quantity that are vastly different in size (such as high voltage circuitry combined with low voltage control circuitry), you should consider specifying global option `bin_relref=yes'.

~~~~~~~~~~~~~~~~~~~~~~~~~~~~~~~~~
Post-Transient Simulation Summary
~~~~~~~~~~~~~~~~~~~~~~~~~~~~~~~~~
   -   To further speed up simulation, consider
          add ++aps on command line
~~~~~~~~~~~~~~~~~~~~~~~~~~~~~~~~~


During simulation, the CPU load for active processors is :
         0 (73.2 %)      1 (73.1 %)      2 (78.9 %)      3 (76.0 %)
        Total: 301.2%
Initial condition solution time: CPU = 326 us, elapsed = 326.872 us.
Intrinsic tran analysis time:    CPU = 19.054 ms, elapsed = 53.36 ms.
Total time required for tran analysis `transient1_transient1': CPU = 21.239 ms, elapsed = 55.599 ms.
Time accumulated: CPU = 438.276 ms, elapsed = 1.86446 s.
Peak resident memory used = 131 Mbytes.

         MDL montecarlo: iteration = 8   ( 16.00% ) complete.

*****************************************************************
Transient Analysis `transient1_transient1': time = (0 s -> 40 ns)
*****************************************************************

Opening the PSFXL file teste_spectre/inverter.raw/transient1_transient1.tran.tran ...
DC simulation time: CPU = 296 us, elapsed = 303.03 us.
Important parameter values:
    start = 0 s
    outputstart = 0 s
    stop = 40 ns
    step = 40 ps
    maxstep = 800 ps
    ic = all
    useprevic = no
    skipdc = no
    reltol = 1e-03
    abstol(V) = 1 uV
    abstol(I) = 1 pA
    temp = -25 C
    tnom = 27 C
    tempeffects = all
    errpreset = moderate
    method = trap
    lteratio = 3.5
    relref = sigglobal
    cmin = 0 F
    gmin = 1 pS


Output and IC/nodeset summary:
                 probe  12      
                 save   2       (current)
                 save   3       (voltage)

.................9.................8.................7.................6.................5.................4.................3.................2.................1.................0
Number of accepted tran steps =             118

Maximum value achieved for any signal of each quantity: 
V: V(Z) = 712.3 mV
I: I(VX:p) = 39.19 uA
If your circuit contains signals of the same quantity that are vastly different in size (such as high voltage circuitry combined with low voltage control circuitry), you should consider specifying global option `bin_relref=yes'.

~~~~~~~~~~~~~~~~~~~~~~~~~~~~~~~~~
Post-Transient Simulation Summary
~~~~~~~~~~~~~~~~~~~~~~~~~~~~~~~~~
   -   To further speed up simulation, consider
          add ++aps on command line
~~~~~~~~~~~~~~~~~~~~~~~~~~~~~~~~~


During simulation, the CPU load for active processors is :
         0 (73.7 %)      1 (73.9 %)      2 (80.0 %)      3 (76.1 %)
        Total: 303.7%
Initial condition solution time: CPU = 366 us, elapsed = 374.079 us.
Intrinsic tran analysis time:    CPU = 17.755 ms, elapsed = 50.458 ms.
Total time required for tran analysis `transient1_transient1': CPU = 20.131 ms, elapsed = 52.839 ms.
Time accumulated: CPU = 461.567 ms, elapsed = 1.95797 s.
Peak resident memory used = 131 Mbytes.

         MDL montecarlo: iteration = 9   ( 18.00% ) complete.

*****************************************************************
Transient Analysis `transient1_transient1': time = (0 s -> 40 ns)
*****************************************************************

Opening the PSFXL file teste_spectre/inverter.raw/transient1_transient1.tran.tran ...
DC simulation time: CPU = 311 us, elapsed = 313.044 us.
Important parameter values:
    start = 0 s
    outputstart = 0 s
    stop = 40 ns
    step = 40 ps
    maxstep = 800 ps
    ic = all
    useprevic = no
    skipdc = no
    reltol = 1e-03
    abstol(V) = 1 uV
    abstol(I) = 1 pA
    temp = -25 C
    tnom = 27 C
    tempeffects = all
    errpreset = moderate
    method = trap
    lteratio = 3.5
    relref = sigglobal
    cmin = 0 F
    gmin = 1 pS


Output and IC/nodeset summary:
                 probe  12      
                 save   2       (current)
                 save   3       (voltage)

.................9.................8.................7.................6.................5.................4.................3.................2.................1.................0
Number of accepted tran steps =             124

Maximum value achieved for any signal of each quantity: 
V: V(Z) = 706.9 mV
I: I(VX:p) = 31.47 uA
If your circuit contains signals of the same quantity that are vastly different in size (such as high voltage circuitry combined with low voltage control circuitry), you should consider specifying global option `bin_relref=yes'.

~~~~~~~~~~~~~~~~~~~~~~~~~~~~~~~~~
Post-Transient Simulation Summary
~~~~~~~~~~~~~~~~~~~~~~~~~~~~~~~~~
   -   To further speed up simulation, consider
          add ++aps on command line
~~~~~~~~~~~~~~~~~~~~~~~~~~~~~~~~~


During simulation, the CPU load for active processors is :
         0 (73.5 %)      1 (72.7 %)      2 (81.0 %)      3 (75.8 %)
        Total: 303.1%
Initial condition solution time: CPU = 399 us, elapsed = 410.08 us.
Intrinsic tran analysis time:    CPU = 22.102 ms, elapsed = 53.9339 ms.
Total time required for tran analysis `transient1_transient1': CPU = 24.633 ms, elapsed = 56.4811 ms.
Time accumulated: CPU = 489.319 ms, elapsed = 2.05359 s.
Peak resident memory used = 131 Mbytes.

         MDL montecarlo: iteration = 10   ( 20.00% ) complete.

*****************************************************************
Transient Analysis `transient1_transient1': time = (0 s -> 40 ns)
*****************************************************************

Opening the PSFXL file teste_spectre/inverter.raw/transient1_transient1.tran.tran ...
DC simulation time: CPU = 314 us, elapsed = 314.951 us.
Important parameter values:
    start = 0 s
    outputstart = 0 s
    stop = 40 ns
    step = 40 ps
    maxstep = 800 ps
    ic = all
    useprevic = no
    skipdc = no
    reltol = 1e-03
    abstol(V) = 1 uV
    abstol(I) = 1 pA
    temp = -25 C
    tnom = 27 C
    tempeffects = all
    errpreset = moderate
    method = trap
    lteratio = 3.5
    relref = sigglobal
    cmin = 0 F
    gmin = 1 pS


Output and IC/nodeset summary:
                 probe  12      
                 save   2       (current)
                 save   3       (voltage)

.................9.................8.................7.................6.................5.................4.................3.................2.................1.................0
Number of accepted tran steps =             120

Maximum value achieved for any signal of each quantity: 
V: V(Z) = 711.8 mV
I: I(VX:p) = 41.89 uA
If your circuit contains signals of the same quantity that are vastly different in size (such as high voltage circuitry combined with low voltage control circuitry), you should consider specifying global option `bin_relref=yes'.

~~~~~~~~~~~~~~~~~~~~~~~~~~~~~~~~~
Post-Transient Simulation Summary
~~~~~~~~~~~~~~~~~~~~~~~~~~~~~~~~~
   -   To further speed up simulation, consider
          add ++aps on command line
~~~~~~~~~~~~~~~~~~~~~~~~~~~~~~~~~


During simulation, the CPU load for active processors is :
         0 (73.7 %)      1 (73.6 %)      2 (80.6 %)      3 (76.5 %)
        Total: 304.5%
Initial condition solution time: CPU = 395 us, elapsed = 397.921 us.
Intrinsic tran analysis time:    CPU = 21.162 ms, elapsed = 59.217 ms.
Total time required for tran analysis `transient1_transient1': CPU = 23.906 ms, elapsed = 61.9681 ms.
Time accumulated: CPU = 516.621 ms, elapsed = 2.15941 s.
Peak resident memory used = 131 Mbytes.

         MDL montecarlo: iteration = 11   ( 22.00% ) complete.

*****************************************************************
Transient Analysis `transient1_transient1': time = (0 s -> 40 ns)
*****************************************************************

Opening the PSFXL file teste_spectre/inverter.raw/transient1_transient1.tran.tran ...
DC simulation time: CPU = 308 us, elapsed = 307.083 us.
Important parameter values:
    start = 0 s
    outputstart = 0 s
    stop = 40 ns
    step = 40 ps
    maxstep = 800 ps
    ic = all
    useprevic = no
    skipdc = no
    reltol = 1e-03
    abstol(V) = 1 uV
    abstol(I) = 1 pA
    temp = -25 C
    tnom = 27 C
    tempeffects = all
    errpreset = moderate
    method = trap
    lteratio = 3.5
    relref = sigglobal
    cmin = 0 F
    gmin = 1 pS


Output and IC/nodeset summary:
                 probe  12      
                 save   2       (current)
                 save   3       (voltage)

.................9.................8.................7.................6.................5.................4.................3.................2.................1.................0
Number of accepted tran steps =             133

Maximum value achieved for any signal of each quantity: 
V: V(Z) = 707.4 mV
I: I(VX:p) = 43.65 uA
If your circuit contains signals of the same quantity that are vastly different in size (such as high voltage circuitry combined with low voltage control circuitry), you should consider specifying global option `bin_relref=yes'.

~~~~~~~~~~~~~~~~~~~~~~~~~~~~~~~~~
Post-Transient Simulation Summary
~~~~~~~~~~~~~~~~~~~~~~~~~~~~~~~~~
   -   To further speed up simulation, consider
          add ++aps on command line
~~~~~~~~~~~~~~~~~~~~~~~~~~~~~~~~~


During simulation, the CPU load for active processors is :
         0 (74.3 %)      1 (74.0 %)      2 (81.1 %)      3 (77.3 %)
        Total: 306.7%
Initial condition solution time: CPU = 374 us, elapsed = 380.993 us.
Intrinsic tran analysis time:    CPU = 22.465 ms, elapsed = 72.0291 ms.
Total time required for tran analysis `transient1_transient1': CPU = 25.045 ms, elapsed = 74.616 ms.
Time accumulated: CPU = 545.102 ms, elapsed = 2.2723 s.
Peak resident memory used = 131 Mbytes.

         MDL montecarlo: iteration = 12   ( 24.00% ) complete.

*****************************************************************
Transient Analysis `transient1_transient1': time = (0 s -> 40 ns)
*****************************************************************

Opening the PSFXL file teste_spectre/inverter.raw/transient1_transient1.tran.tran ...
DC simulation time: CPU = 323 us, elapsed = 330.925 us.
Important parameter values:
    start = 0 s
    outputstart = 0 s
    stop = 40 ns
    step = 40 ps
    maxstep = 800 ps
    ic = all
    useprevic = no
    skipdc = no
    reltol = 1e-03
    abstol(V) = 1 uV
    abstol(I) = 1 pA
    temp = -25 C
    tnom = 27 C
    tempeffects = all
    errpreset = moderate
    method = trap
    lteratio = 3.5
    relref = sigglobal
    cmin = 0 F
    gmin = 1 pS


Output and IC/nodeset summary:
                 probe  12      
                 save   2       (current)
                 save   3       (voltage)

.................9.................8.................7.................6.................5.................4.................3.................2.................1.................0
Number of accepted tran steps =             124

Maximum value achieved for any signal of each quantity: 
V: V(Z) = 711.6 mV
I: I(VX:p) = 26.93 uA
If your circuit contains signals of the same quantity that are vastly different in size (such as high voltage circuitry combined with low voltage control circuitry), you should consider specifying global option `bin_relref=yes'.

~~~~~~~~~~~~~~~~~~~~~~~~~~~~~~~~~
Post-Transient Simulation Summary
~~~~~~~~~~~~~~~~~~~~~~~~~~~~~~~~~
   -   To further speed up simulation, consider
          add ++aps on command line
~~~~~~~~~~~~~~~~~~~~~~~~~~~~~~~~~


During simulation, the CPU load for active processors is :
         0 (74.4 %)      1 (74.0 %)      2 (81.7 %)      3 (77.1 %)
        Total: 307.1%
Initial condition solution time: CPU = 397 us, elapsed = 406.981 us.
Intrinsic tran analysis time:    CPU = 20.388 ms, elapsed = 57.9669 ms.
Total time required for tran analysis `transient1_transient1': CPU = 23.018 ms, elapsed = 60.605 ms.
Time accumulated: CPU = 571.388 ms, elapsed = 2.37487 s.
Peak resident memory used = 131 Mbytes.

         MDL montecarlo: iteration = 13   ( 26.00% ) complete.

*****************************************************************
Transient Analysis `transient1_transient1': time = (0 s -> 40 ns)
*****************************************************************

Opening the PSFXL file teste_spectre/inverter.raw/transient1_transient1.tran.tran ...
DC simulation time: CPU = 308 us, elapsed = 308.99 us.
Important parameter values:
    start = 0 s
    outputstart = 0 s
    stop = 40 ns
    step = 40 ps
    maxstep = 800 ps
    ic = all
    useprevic = no
    skipdc = no
    reltol = 1e-03
    abstol(V) = 1 uV
    abstol(I) = 1 pA
    temp = -25 C
    tnom = 27 C
    tempeffects = all
    errpreset = moderate
    method = trap
    lteratio = 3.5
    relref = sigglobal
    cmin = 0 F
    gmin = 1 pS


Output and IC/nodeset summary:
                 probe  12      
                 save   2       (current)
                 save   3       (voltage)

.................9.................8.................7.................6.................5.................4.................3.................2.................1.................0
Number of accepted tran steps =             119

Maximum value achieved for any signal of each quantity: 
V: V(Z) = 706.8 mV
I: I(VX:p) = 42.09 uA
If your circuit contains signals of the same quantity that are vastly different in size (such as high voltage circuitry combined with low voltage control circuitry), you should consider specifying global option `bin_relref=yes'.

~~~~~~~~~~~~~~~~~~~~~~~~~~~~~~~~~
Post-Transient Simulation Summary
~~~~~~~~~~~~~~~~~~~~~~~~~~~~~~~~~
   -   To further speed up simulation, consider
          add ++aps on command line
~~~~~~~~~~~~~~~~~~~~~~~~~~~~~~~~~


During simulation, the CPU load for active processors is :
         0 (75.0 %)      1 (75.2 %)      2 (81.7 %)      3 (77.8 %)
        Total: 309.7%
Initial condition solution time: CPU = 379 us, elapsed = 381.947 us.
Intrinsic tran analysis time:    CPU = 19.274 ms, elapsed = 65.3341 ms.
Total time required for tran analysis `transient1_transient1': CPU = 21.669 ms, elapsed = 67.74 ms.
Time accumulated: CPU = 596.542 ms, elapsed = 2.54496 s.
Peak resident memory used = 131 Mbytes.

         MDL montecarlo: iteration = 14   ( 28.00% ) complete.

*****************************************************************
Transient Analysis `transient1_transient1': time = (0 s -> 40 ns)
*****************************************************************

Opening the PSFXL file teste_spectre/inverter.raw/transient1_transient1.tran.tran ...
DC simulation time: CPU = 377 us, elapsed = 378.847 us.
Important parameter values:
    start = 0 s
    outputstart = 0 s
    stop = 40 ns
    step = 40 ps
    maxstep = 800 ps
    ic = all
    useprevic = no
    skipdc = no
    reltol = 1e-03
    abstol(V) = 1 uV
    abstol(I) = 1 pA
    temp = -25 C
    tnom = 27 C
    tempeffects = all
    errpreset = moderate
    method = trap
    lteratio = 3.5
    relref = sigglobal
    cmin = 0 F
    gmin = 1 pS


Output and IC/nodeset summary:
                 probe  12      
                 save   2       (current)
                 save   3       (voltage)

.................9.................8.................7.................6.................5.................4.................3.................2.................1.................0
Number of accepted tran steps =             131

Maximum value achieved for any signal of each quantity: 
V: V(Z) = 710.2 mV
I: I(VX:p) = 27.17 uA
If your circuit contains signals of the same quantity that are vastly different in size (such as high voltage circuitry combined with low voltage control circuitry), you should consider specifying global option `bin_relref=yes'.

~~~~~~~~~~~~~~~~~~~~~~~~~~~~~~~~~
Post-Transient Simulation Summary
~~~~~~~~~~~~~~~~~~~~~~~~~~~~~~~~~
   -   To further speed up simulation, consider
          add ++aps on command line
~~~~~~~~~~~~~~~~~~~~~~~~~~~~~~~~~


During simulation, the CPU load for active processors is :
         0 (77.0 %)      1 (76.9 %)      2 (82.6 %)      3 (79.5 %)
        Total: 316.0%
Initial condition solution time: CPU = 497 us, elapsed = 499.964 us.
Intrinsic tran analysis time:    CPU = 24.109 ms, elapsed = 137.682 ms.
Total time required for tran analysis `transient1_transient1': CPU = 26.834 ms, elapsed = 140.419 ms.
Time accumulated: CPU = 626.929 ms, elapsed = 2.7472 s.
Peak resident memory used = 132 Mbytes.

         MDL montecarlo: iteration = 15   ( 30.00% ) complete.

*****************************************************************
Transient Analysis `transient1_transient1': time = (0 s -> 40 ns)
*****************************************************************

Opening the PSFXL file teste_spectre/inverter.raw/transient1_transient1.tran.tran ...
DC simulation time: CPU = 333 us, elapsed = 334.978 us.
Important parameter values:
    start = 0 s
    outputstart = 0 s
    stop = 40 ns
    step = 40 ps
    maxstep = 800 ps
    ic = all
    useprevic = no
    skipdc = no
    reltol = 1e-03
    abstol(V) = 1 uV
    abstol(I) = 1 pA
    temp = -25 C
    tnom = 27 C
    tempeffects = all
    errpreset = moderate
    method = trap
    lteratio = 3.5
    relref = sigglobal
    cmin = 0 F
    gmin = 1 pS


Output and IC/nodeset summary:
                 probe  12      
                 save   2       (current)
                 save   3       (voltage)

.................9.................8.................7.................6.................5.................4.................3.................2.................1.................0
Number of accepted tran steps =             132

Maximum value achieved for any signal of each quantity: 
V: V(Z) = 707.7 mV
I: I(VX:p) = 27.56 uA
If your circuit contains signals of the same quantity that are vastly different in size (such as high voltage circuitry combined with low voltage control circuitry), you should consider specifying global option `bin_relref=yes'.

~~~~~~~~~~~~~~~~~~~~~~~~~~~~~~~~~
Post-Transient Simulation Summary
~~~~~~~~~~~~~~~~~~~~~~~~~~~~~~~~~
   -   To further speed up simulation, consider
          add ++aps on command line
~~~~~~~~~~~~~~~~~~~~~~~~~~~~~~~~~


During simulation, the CPU load for active processors is :
         0 (77.5 %)      1 (76.7 %)      2 (83.5 %)      3 (79.9 %)
        Total: 317.6%
Initial condition solution time: CPU = 428 us, elapsed = 430.822 us.
Intrinsic tran analysis time:    CPU = 21.26 ms, elapsed = 125.205 ms.
Total time required for tran analysis `transient1_transient1': CPU = 23.758 ms, elapsed = 127.716 ms.
Time accumulated: CPU = 654.099 ms, elapsed = 2.94584 s.
Peak resident memory used = 132 Mbytes.

         MDL montecarlo: iteration = 16   ( 32.00% ) complete.

*****************************************************************
Transient Analysis `transient1_transient1': time = (0 s -> 40 ns)
*****************************************************************

Opening the PSFXL file teste_spectre/inverter.raw/transient1_transient1.tran.tran ...
DC simulation time: CPU = 345 us, elapsed = 346.899 us.
Important parameter values:
    start = 0 s
    outputstart = 0 s
    stop = 40 ns
    step = 40 ps
    maxstep = 800 ps
    ic = all
    useprevic = no
    skipdc = no
    reltol = 1e-03
    abstol(V) = 1 uV
    abstol(I) = 1 pA
    temp = -25 C
    tnom = 27 C
    tempeffects = all
    errpreset = moderate
    method = trap
    lteratio = 3.5
    relref = sigglobal
    cmin = 0 F
    gmin = 1 pS


Output and IC/nodeset summary:
                 probe  12      
                 save   2       (current)
                 save   3       (voltage)

.................9.................8.................7.................6.................5.................4.................3.................2.................1.................0
Number of accepted tran steps =             127

Maximum value achieved for any signal of each quantity: 
V: V(Z) = 710.8 mV
I: I(VX:p) = 45.2 uA
If your circuit contains signals of the same quantity that are vastly different in size (such as high voltage circuitry combined with low voltage control circuitry), you should consider specifying global option `bin_relref=yes'.

~~~~~~~~~~~~~~~~~~~~~~~~~~~~~~~~~
Post-Transient Simulation Summary
~~~~~~~~~~~~~~~~~~~~~~~~~~~~~~~~~
   -   To further speed up simulation, consider
          add ++aps on command line
~~~~~~~~~~~~~~~~~~~~~~~~~~~~~~~~~


During simulation, the CPU load for active processors is :
         0 (77.0 %)      1 (75.7 %)      2 (82.4 %)      3 (78.6 %)
        Total: 313.7%
Initial condition solution time: CPU = 455 us, elapsed = 517.13 us.
Intrinsic tran analysis time:    CPU = 19.861 ms, elapsed = 109.407 ms.
Total time required for tran analysis `transient1_transient1': CPU = 22.468 ms, elapsed = 112.098 ms.
Time accumulated: CPU = 679.741 ms, elapsed = 3.15845 s.
Peak resident memory used = 132 Mbytes.

         MDL montecarlo: iteration = 17   ( 34.00% ) complete.

*****************************************************************
Transient Analysis `transient1_transient1': time = (0 s -> 40 ns)
*****************************************************************

Opening the PSFXL file teste_spectre/inverter.raw/transient1_transient1.tran.tran ...
DC simulation time: CPU = 320 us, elapsed = 329.018 us.
Important parameter values:
    start = 0 s
    outputstart = 0 s
    stop = 40 ns
    step = 40 ps
    maxstep = 800 ps
    ic = all
    useprevic = no
    skipdc = no
    reltol = 1e-03
    abstol(V) = 1 uV
    abstol(I) = 1 pA
    temp = -25 C
    tnom = 27 C
    tempeffects = all
    errpreset = moderate
    method = trap
    lteratio = 3.5
    relref = sigglobal
    cmin = 0 F
    gmin = 1 pS


Output and IC/nodeset summary:
                 probe  12      
                 save   2       (current)
                 save   3       (voltage)

.................9.................8.................7.................6.................5.................4.................3.................2.................1.................0
Number of accepted tran steps =             126

Maximum value achieved for any signal of each quantity: 
V: V(Z) = 706.7 mV
I: I(VX:p) = 45.63 uA
If your circuit contains signals of the same quantity that are vastly different in size (such as high voltage circuitry combined with low voltage control circuitry), you should consider specifying global option `bin_relref=yes'.

~~~~~~~~~~~~~~~~~~~~~~~~~~~~~~~~~
Post-Transient Simulation Summary
~~~~~~~~~~~~~~~~~~~~~~~~~~~~~~~~~
   -   To further speed up simulation, consider
          add ++aps on command line
~~~~~~~~~~~~~~~~~~~~~~~~~~~~~~~~~


During simulation, the CPU load for active processors is :
         0 (76.8 %)      1 (75.8 %)      2 (83.0 %)      3 (78.6 %)
        Total: 314.2%
Initial condition solution time: CPU = 401 us, elapsed = 411.034 us.
Intrinsic tran analysis time:    CPU = 19.701 ms, elapsed = 98.979 ms.
Total time required for tran analysis `transient1_transient1': CPU = 22.335 ms, elapsed = 101.619 ms.
Time accumulated: CPU = 705.394 ms, elapsed = 3.40425 s.
Peak resident memory used = 132 Mbytes.

         MDL montecarlo: iteration = 18   ( 36.00% ) complete.

*****************************************************************
Transient Analysis `transient1_transient1': time = (0 s -> 40 ns)
*****************************************************************

Opening the PSFXL file teste_spectre/inverter.raw/transient1_transient1.tran.tran ...
DC simulation time: CPU = 270 us, elapsed = 277.042 us.
Important parameter values:
    start = 0 s
    outputstart = 0 s
    stop = 40 ns
    step = 40 ps
    maxstep = 800 ps
    ic = all
    useprevic = no
    skipdc = no
    reltol = 1e-03
    abstol(V) = 1 uV
    abstol(I) = 1 pA
    temp = -25 C
    tnom = 27 C
    tempeffects = all
    errpreset = moderate
    method = trap
    lteratio = 3.5
    relref = sigglobal
    cmin = 0 F
    gmin = 1 pS


Output and IC/nodeset summary:
                 probe  12      
                 save   2       (current)
                 save   3       (voltage)

.................9.................8.................7.................6.................5.................4.................3.................2.................1.................0
Number of accepted tran steps =             124

Maximum value achieved for any signal of each quantity: 
V: V(Z) = 706.8 mV
I: I(VX:p) = 40.9 uA
If your circuit contains signals of the same quantity that are vastly different in size (such as high voltage circuitry combined with low voltage control circuitry), you should consider specifying global option `bin_relref=yes'.

~~~~~~~~~~~~~~~~~~~~~~~~~~~~~~~~~
Post-Transient Simulation Summary
~~~~~~~~~~~~~~~~~~~~~~~~~~~~~~~~~
   -   To further speed up simulation, consider
          add ++aps on command line
~~~~~~~~~~~~~~~~~~~~~~~~~~~~~~~~~


During simulation, the CPU load for active processors is :
         0 (72.7 %)      1 (71.7 %)      2 (77.8 %)      3 (74.5 %)
        Total: 296.7%
Initial condition solution time: CPU = 345 us, elapsed = 355.005 us.
Intrinsic tran analysis time:    CPU = 21.197 ms, elapsed = 81.4989 ms.
Total time required for tran analysis `transient1_transient1': CPU = 23.447 ms, elapsed = 83.7622 ms.
Time accumulated: CPU = 732.101 ms, elapsed = 3.73607 s.
Peak resident memory used = 132 Mbytes.

         MDL montecarlo: iteration = 19   ( 38.00% ) complete.

*****************************************************************
Transient Analysis `transient1_transient1': time = (0 s -> 40 ns)
*****************************************************************

Opening the PSFXL file teste_spectre/inverter.raw/transient1_transient1.tran.tran ...
DC simulation time: CPU = 293 us, elapsed = 293.016 us.
Important parameter values:
    start = 0 s
    outputstart = 0 s
    stop = 40 ns
    step = 40 ps
    maxstep = 800 ps
    ic = all
    useprevic = no
    skipdc = no
    reltol = 1e-03
    abstol(V) = 1 uV
    abstol(I) = 1 pA
    temp = -25 C
    tnom = 27 C
    tempeffects = all
    errpreset = moderate
    method = trap
    lteratio = 3.5
    relref = sigglobal
    cmin = 0 F
    gmin = 1 pS


Output and IC/nodeset summary:
                 probe  12      
                 save   2       (current)
                 save   3       (voltage)

.................9.................8.................7.................6.................5.................4.................3.................2.................1.................0
Number of accepted tran steps =             125

Maximum value achieved for any signal of each quantity: 
V: V(Z) = 707.2 mV
I: I(VX:p) = 36 uA
If your circuit contains signals of the same quantity that are vastly different in size (such as high voltage circuitry combined with low voltage control circuitry), you should consider specifying global option `bin_relref=yes'.

~~~~~~~~~~~~~~~~~~~~~~~~~~~~~~~~~
Post-Transient Simulation Summary
~~~~~~~~~~~~~~~~~~~~~~~~~~~~~~~~~
   -   To further speed up simulation, consider
          add ++aps on command line
~~~~~~~~~~~~~~~~~~~~~~~~~~~~~~~~~


During simulation, the CPU load for active processors is :
         0 (73.0 %)      1 (71.9 %)      2 (78.3 %)      3 (75.1 %)
        Total: 298.3%
Initial condition solution time: CPU = 353 us, elapsed = 355.005 us.
Intrinsic tran analysis time:    CPU = 20.844 ms, elapsed = 91.521 ms.
Total time required for tran analysis `transient1_transient1': CPU = 23.567 ms, elapsed = 94.249 ms.
Time accumulated: CPU = 759.288 ms, elapsed = 3.90247 s.
Peak resident memory used = 132 Mbytes.

         MDL montecarlo: iteration = 20   ( 40.00% ) complete.

*****************************************************************
Transient Analysis `transient1_transient1': time = (0 s -> 40 ns)
*****************************************************************

Opening the PSFXL file teste_spectre/inverter.raw/transient1_transient1.tran.tran ...
DC simulation time: CPU = 308 us, elapsed = 307.798 us.
Important parameter values:
    start = 0 s
    outputstart = 0 s
    stop = 40 ns
    step = 40 ps
    maxstep = 800 ps
    ic = all
    useprevic = no
    skipdc = no
    reltol = 1e-03
    abstol(V) = 1 uV
    abstol(I) = 1 pA
    temp = -25 C
    tnom = 27 C
    tempeffects = all
    errpreset = moderate
    method = trap
    lteratio = 3.5
    relref = sigglobal
    cmin = 0 F
    gmin = 1 pS


Output and IC/nodeset summary:
                 probe  12      
                 save   2       (current)
                 save   3       (voltage)

.................9.................8.................7.................6.................5.................4.................3.................2.................1.................0
Number of accepted tran steps =             126

Maximum value achieved for any signal of each quantity: 
V: V(Z) = 711.5 mV
I: I(VX:p) = 28.37 uA
If your circuit contains signals of the same quantity that are vastly different in size (such as high voltage circuitry combined with low voltage control circuitry), you should consider specifying global option `bin_relref=yes'.

~~~~~~~~~~~~~~~~~~~~~~~~~~~~~~~~~
Post-Transient Simulation Summary
~~~~~~~~~~~~~~~~~~~~~~~~~~~~~~~~~
   -   To further speed up simulation, consider
          add ++aps on command line
~~~~~~~~~~~~~~~~~~~~~~~~~~~~~~~~~


During simulation, the CPU load for active processors is :
         0 (73.5 %)      1 (72.6 %)      2 (78.5 %)      3 (75.7 %)
        Total: 300.3%
Initial condition solution time: CPU = 391 us, elapsed = 400.782 us.
Intrinsic tran analysis time:    CPU = 25.583 ms, elapsed = 79.5388 ms.
Total time required for tran analysis `transient1_transient1': CPU = 28.026 ms, elapsed = 81.9929 ms.
Time accumulated: CPU = 791.042 ms, elapsed = 4.03212 s.
Peak resident memory used = 132 Mbytes.

         MDL montecarlo: iteration = 21   ( 42.00% ) complete.

*****************************************************************
Transient Analysis `transient1_transient1': time = (0 s -> 40 ns)
*****************************************************************

Opening the PSFXL file teste_spectre/inverter.raw/transient1_transient1.tran.tran ...
DC simulation time: CPU = 307 us, elapsed = 306.845 us.
Important parameter values:
    start = 0 s
    outputstart = 0 s
    stop = 40 ns
    step = 40 ps
    maxstep = 800 ps
    ic = all
    useprevic = no
    skipdc = no
    reltol = 1e-03
    abstol(V) = 1 uV
    abstol(I) = 1 pA
    temp = -25 C
    tnom = 27 C
    tempeffects = all
    errpreset = moderate
    method = trap
    lteratio = 3.5
    relref = sigglobal
    cmin = 0 F
    gmin = 1 pS


Output and IC/nodeset summary:
                 probe  12      
                 save   2       (current)
                 save   3       (voltage)

.................9.................8.................7.................6.................5.................4.................3.................2.................1.................0
Number of accepted tran steps =             133

Maximum value achieved for any signal of each quantity: 
V: V(Z) = 709.6 mV
I: I(VX:p) = 32.97 uA
If your circuit contains signals of the same quantity that are vastly different in size (such as high voltage circuitry combined with low voltage control circuitry), you should consider specifying global option `bin_relref=yes'.

~~~~~~~~~~~~~~~~~~~~~~~~~~~~~~~~~
Post-Transient Simulation Summary
~~~~~~~~~~~~~~~~~~~~~~~~~~~~~~~~~
   -   To further speed up simulation, consider
          add ++aps on command line
~~~~~~~~~~~~~~~~~~~~~~~~~~~~~~~~~


During simulation, the CPU load for active processors is :
         0 (73.7 %)      1 (72.9 %)      2 (78.6 %)      3 (76.1 %)
        Total: 301.4%
Initial condition solution time: CPU = 368 us, elapsed = 369.072 us.
Intrinsic tran analysis time:    CPU = 23.631 ms, elapsed = 67.6649 ms.
Total time required for tran analysis `transient1_transient1': CPU = 26.148 ms, elapsed = 70.1869 ms.
Time accumulated: CPU = 820.452 ms, elapsed = 4.14486 s.
Peak resident memory used = 132 Mbytes.

         MDL montecarlo: iteration = 22   ( 44.00% ) complete.

*****************************************************************
Transient Analysis `transient1_transient1': time = (0 s -> 40 ns)
*****************************************************************

Opening the PSFXL file teste_spectre/inverter.raw/transient1_transient1.tran.tran ...
DC simulation time: CPU = 268 us, elapsed = 272.989 us.
Important parameter values:
    start = 0 s
    outputstart = 0 s
    stop = 40 ns
    step = 40 ps
    maxstep = 800 ps
    ic = all
    useprevic = no
    skipdc = no
    reltol = 1e-03
    abstol(V) = 1 uV
    abstol(I) = 1 pA
    temp = -25 C
    tnom = 27 C
    tempeffects = all
    errpreset = moderate
    method = trap
    lteratio = 3.5
    relref = sigglobal
    cmin = 0 F
    gmin = 1 pS


Output and IC/nodeset summary:
                 probe  12      
                 save   2       (current)
                 save   3       (voltage)

.................9.................8.................7.................6.................5.................4.................3.................2.................1.................0
Number of accepted tran steps =             133

Maximum value achieved for any signal of each quantity: 
V: V(Z) = 709.5 mV
I: I(VX:p) = 36.61 uA
If your circuit contains signals of the same quantity that are vastly different in size (such as high voltage circuitry combined with low voltage control circuitry), you should consider specifying global option `bin_relref=yes'.

~~~~~~~~~~~~~~~~~~~~~~~~~~~~~~~~~
Post-Transient Simulation Summary
~~~~~~~~~~~~~~~~~~~~~~~~~~~~~~~~~
   -   To further speed up simulation, consider
          add ++aps on command line
~~~~~~~~~~~~~~~~~~~~~~~~~~~~~~~~~


During simulation, the CPU load for active processors is :
         0 (73.9 %)      1 (73.3 %)      2 (78.7 %)      3 (76.2 %)
        Total: 302.2%
Initial condition solution time: CPU = 324 us, elapsed = 330.925 us.
Intrinsic tran analysis time:    CPU = 21.884 ms, elapsed = 60.7221 ms.
Total time required for tran analysis `transient1_transient1': CPU = 24.314 ms, elapsed = 63.1711 ms.
Time accumulated: CPU = 848.282 ms, elapsed = 4.25479 s.
Peak resident memory used = 132 Mbytes.

         MDL montecarlo: iteration = 23   ( 46.00% ) complete.

*****************************************************************
Transient Analysis `transient1_transient1': time = (0 s -> 40 ns)
*****************************************************************

Opening the PSFXL file teste_spectre/inverter.raw/transient1_transient1.tran.tran ...
DC simulation time: CPU = 310 us, elapsed = 317.097 us.
Important parameter values:
    start = 0 s
    outputstart = 0 s
    stop = 40 ns
    step = 40 ps
    maxstep = 800 ps
    ic = all
    useprevic = no
    skipdc = no
    reltol = 1e-03
    abstol(V) = 1 uV
    abstol(I) = 1 pA
    temp = -25 C
    tnom = 27 C
    tempeffects = all
    errpreset = moderate
    method = trap
    lteratio = 3.5
    relref = sigglobal
    cmin = 0 F
    gmin = 1 pS


Output and IC/nodeset summary:
                 probe  12      
                 save   2       (current)
                 save   3       (voltage)

.................9.................8.................7.................6.................5.................4.................3.................2.................1.................0
Number of accepted tran steps =             132

Maximum value achieved for any signal of each quantity: 
V: V(Z) = 710.9 mV
I: I(VX:p) = 34.32 uA
If your circuit contains signals of the same quantity that are vastly different in size (such as high voltage circuitry combined with low voltage control circuitry), you should consider specifying global option `bin_relref=yes'.

~~~~~~~~~~~~~~~~~~~~~~~~~~~~~~~~~
Post-Transient Simulation Summary
~~~~~~~~~~~~~~~~~~~~~~~~~~~~~~~~~
   -   To further speed up simulation, consider
          add ++aps on command line
~~~~~~~~~~~~~~~~~~~~~~~~~~~~~~~~~


During simulation, the CPU load for active processors is :
         0 (74.6 %)      1 (73.6 %)      2 (78.8 %)      3 (76.4 %)
        Total: 303.4%
Initial condition solution time: CPU = 392 us, elapsed = 400.066 us.
Intrinsic tran analysis time:    CPU = 20.756 ms, elapsed = 63.3459 ms.
Total time required for tran analysis `transient1_transient1': CPU = 23.33 ms, elapsed = 65.9361 ms.
Time accumulated: CPU = 874.753 ms, elapsed = 4.36567 s.
Peak resident memory used = 132 Mbytes.

         MDL montecarlo: iteration = 24   ( 48.00% ) complete.

*****************************************************************
Transient Analysis `transient1_transient1': time = (0 s -> 40 ns)
*****************************************************************

Opening the PSFXL file teste_spectre/inverter.raw/transient1_transient1.tran.tran ...
DC simulation time: CPU = 337 us, elapsed = 336.885 us.
Important parameter values:
    start = 0 s
    outputstart = 0 s
    stop = 40 ns
    step = 40 ps
    maxstep = 800 ps
    ic = all
    useprevic = no
    skipdc = no
    reltol = 1e-03
    abstol(V) = 1 uV
    abstol(I) = 1 pA
    temp = -25 C
    tnom = 27 C
    tempeffects = all
    errpreset = moderate
    method = trap
    lteratio = 3.5
    relref = sigglobal
    cmin = 0 F
    gmin = 1 pS


Output and IC/nodeset summary:
                 probe  12      
                 save   2       (current)
                 save   3       (voltage)

.................9.................8.................7.................6.................5.................4.................3.................2.................1.................0
Number of accepted tran steps =             123

Maximum value achieved for any signal of each quantity: 
V: V(Z) = 712 mV
I: I(VX:p) = 26.47 uA
If your circuit contains signals of the same quantity that are vastly different in size (such as high voltage circuitry combined with low voltage control circuitry), you should consider specifying global option `bin_relref=yes'.

~~~~~~~~~~~~~~~~~~~~~~~~~~~~~~~~~
Post-Transient Simulation Summary
~~~~~~~~~~~~~~~~~~~~~~~~~~~~~~~~~
   -   To further speed up simulation, consider
          add ++aps on command line
~~~~~~~~~~~~~~~~~~~~~~~~~~~~~~~~~


During simulation, the CPU load for active processors is :
         0 (74.7 %)      1 (73.7 %)      2 (79.3 %)      3 (76.5 %)
        Total: 304.2%
Initial condition solution time: CPU = 436 us, elapsed = 439.167 us.
Intrinsic tran analysis time:    CPU = 17.231 ms, elapsed = 54.5101 ms.
Total time required for tran analysis `transient1_transient1': CPU = 20.101 ms, elapsed = 57.3888 ms.
Time accumulated: CPU = 897.939 ms, elapsed = 4.46559 s.
Peak resident memory used = 132 Mbytes.

         MDL montecarlo: iteration = 25   ( 50.00% ) complete.

*****************************************************************
Transient Analysis `transient1_transient1': time = (0 s -> 40 ns)
*****************************************************************

Opening the PSFXL file teste_spectre/inverter.raw/transient1_transient1.tran.tran ...
DC simulation time: CPU = 252 us, elapsed = 253.916 us.
Important parameter values:
    start = 0 s
    outputstart = 0 s
    stop = 40 ns
    step = 40 ps
    maxstep = 800 ps
    ic = all
    useprevic = no
    skipdc = no
    reltol = 1e-03
    abstol(V) = 1 uV
    abstol(I) = 1 pA
    temp = -25 C
    tnom = 27 C
    tempeffects = all
    errpreset = moderate
    method = trap
    lteratio = 3.5
    relref = sigglobal
    cmin = 0 F
    gmin = 1 pS


Output and IC/nodeset summary:
                 probe  12      
                 save   2       (current)
                 save   3       (voltage)

.................9.................8.................7.................6.................5.................4.................3.................2.................1.................0
Number of accepted tran steps =             126

Maximum value achieved for any signal of each quantity: 
V: V(Z) = 708.6 mV
I: I(VX:p) = 25.86 uA
If your circuit contains signals of the same quantity that are vastly different in size (such as high voltage circuitry combined with low voltage control circuitry), you should consider specifying global option `bin_relref=yes'.

~~~~~~~~~~~~~~~~~~~~~~~~~~~~~~~~~
Post-Transient Simulation Summary
~~~~~~~~~~~~~~~~~~~~~~~~~~~~~~~~~
   -   To further speed up simulation, consider
          add ++aps on command line
~~~~~~~~~~~~~~~~~~~~~~~~~~~~~~~~~


During simulation, the CPU load for active processors is :
         0 (74.2 %)      1 (73.2 %)      2 (78.6 %)      3 (75.6 %)
        Total: 301.6%
Initial condition solution time: CPU = 313 us, elapsed = 314.951 us.
Intrinsic tran analysis time:    CPU = 20.801 ms, elapsed = 58.9769 ms.
Total time required for tran analysis `transient1_transient1': CPU = 23.061 ms, elapsed = 61.2559 ms.
Time accumulated: CPU = 923.964 ms, elapsed = 4.61119 s.
Peak resident memory used = 132 Mbytes.

         MDL montecarlo: iteration = 26   ( 52.00% ) complete.

*****************************************************************
Transient Analysis `transient1_transient1': time = (0 s -> 40 ns)
*****************************************************************

Opening the PSFXL file teste_spectre/inverter.raw/transient1_transient1.tran.tran ...
DC simulation time: CPU = 321 us, elapsed = 323.057 us.
Important parameter values:
    start = 0 s
    outputstart = 0 s
    stop = 40 ns
    step = 40 ps
    maxstep = 800 ps
    ic = all
    useprevic = no
    skipdc = no
    reltol = 1e-03
    abstol(V) = 1 uV
    abstol(I) = 1 pA
    temp = -25 C
    tnom = 27 C
    tempeffects = all
    errpreset = moderate
    method = trap
    lteratio = 3.5
    relref = sigglobal
    cmin = 0 F
    gmin = 1 pS


Output and IC/nodeset summary:
                 probe  12      
                 save   2       (current)
                 save   3       (voltage)

.................9.................8.................7.................6.................5.................4.................3.................2.................1.................0
Number of accepted tran steps =             132

Maximum value achieved for any signal of each quantity: 
V: V(Z) = 710.9 mV
I: I(VX:p) = 36.37 uA
If your circuit contains signals of the same quantity that are vastly different in size (such as high voltage circuitry combined with low voltage control circuitry), you should consider specifying global option `bin_relref=yes'.

~~~~~~~~~~~~~~~~~~~~~~~~~~~~~~~~~
Post-Transient Simulation Summary
~~~~~~~~~~~~~~~~~~~~~~~~~~~~~~~~~
   -   To further speed up simulation, consider
          add ++aps on command line
~~~~~~~~~~~~~~~~~~~~~~~~~~~~~~~~~


During simulation, the CPU load for active processors is :
         0 (74.3 %)      1 (73.3 %)      2 (79.0 %)      3 (76.1 %)
        Total: 302.6%
Initial condition solution time: CPU = 396 us, elapsed = 398.874 us.
Intrinsic tran analysis time:    CPU = 21.885 ms, elapsed = 58.8069 ms.
Total time required for tran analysis `transient1_transient1': CPU = 24.588 ms, elapsed = 68.2728 ms.
Time accumulated: CPU = 951.651 ms, elapsed = 4.71106 s.
Peak resident memory used = 132 Mbytes.

         MDL montecarlo: iteration = 27   ( 54.00% ) complete.

*****************************************************************
Transient Analysis `transient1_transient1': time = (0 s -> 40 ns)
*****************************************************************

Opening the PSFXL file teste_spectre/inverter.raw/transient1_transient1.tran.tran ...
DC simulation time: CPU = 273 us, elapsed = 273.943 us.
Important parameter values:
    start = 0 s
    outputstart = 0 s
    stop = 40 ns
    step = 40 ps
    maxstep = 800 ps
    ic = all
    useprevic = no
    skipdc = no
    reltol = 1e-03
    abstol(V) = 1 uV
    abstol(I) = 1 pA
    temp = -25 C
    tnom = 27 C
    tempeffects = all
    errpreset = moderate
    method = trap
    lteratio = 3.5
    relref = sigglobal
    cmin = 0 F
    gmin = 1 pS


Output and IC/nodeset summary:
                 probe  12      
                 save   2       (current)
                 save   3       (voltage)

.................9.................8.................7.................6.................5.................4.................3.................2.................1.................0
Number of accepted tran steps =             117

Maximum value achieved for any signal of each quantity: 
V: V(Z) = 707 mV
I: I(VX:p) = 40.08 uA
If your circuit contains signals of the same quantity that are vastly different in size (such as high voltage circuitry combined with low voltage control circuitry), you should consider specifying global option `bin_relref=yes'.

~~~~~~~~~~~~~~~~~~~~~~~~~~~~~~~~~
Post-Transient Simulation Summary
~~~~~~~~~~~~~~~~~~~~~~~~~~~~~~~~~
   -   To further speed up simulation, consider
          add ++aps on command line
~~~~~~~~~~~~~~~~~~~~~~~~~~~~~~~~~


During simulation, the CPU load for active processors is :
         0 (74.9 %)      1 (74.0 %)      2 (79.4 %)      3 (76.5 %)
        Total: 304.7%
Initial condition solution time: CPU = 332 us, elapsed = 333.071 us.
Intrinsic tran analysis time:    CPU = 21.176 ms, elapsed = 62.2611 ms.
Total time required for tran analysis `transient1_transient1': CPU = 23.47 ms, elapsed = 64.5649 ms.
Time accumulated: CPU = 978.256 ms, elapsed = 4.82053 s.
Peak resident memory used = 132 Mbytes.

         MDL montecarlo: iteration = 28   ( 56.00% ) complete.

*****************************************************************
Transient Analysis `transient1_transient1': time = (0 s -> 40 ns)
*****************************************************************

Opening the PSFXL file teste_spectre/inverter.raw/transient1_transient1.tran.tran ...
DC simulation time: CPU = 297 us, elapsed = 305.891 us.
Important parameter values:
    start = 0 s
    outputstart = 0 s
    stop = 40 ns
    step = 40 ps
    maxstep = 800 ps
    ic = all
    useprevic = no
    skipdc = no
    reltol = 1e-03
    abstol(V) = 1 uV
    abstol(I) = 1 pA
    temp = -25 C
    tnom = 27 C
    tempeffects = all
    errpreset = moderate
    method = trap
    lteratio = 3.5
    relref = sigglobal
    cmin = 0 F
    gmin = 1 pS


Output and IC/nodeset summary:
                 probe  12      
                 save   2       (current)
                 save   3       (voltage)

.................9.................8.................7.................6.................5.................4.................3.................2.................1.................0
Number of accepted tran steps =             127

Maximum value achieved for any signal of each quantity: 
V: V(Z) = 710.8 mV
I: I(VX:p) = 41.41 uA
If your circuit contains signals of the same quantity that are vastly different in size (such as high voltage circuitry combined with low voltage control circuitry), you should consider specifying global option `bin_relref=yes'.

~~~~~~~~~~~~~~~~~~~~~~~~~~~~~~~~~
Post-Transient Simulation Summary
~~~~~~~~~~~~~~~~~~~~~~~~~~~~~~~~~
   -   To further speed up simulation, consider
          add ++aps on command line
~~~~~~~~~~~~~~~~~~~~~~~~~~~~~~~~~


During simulation, the CPU load for active processors is :
         0 (75.2 %)      1 (74.3 %)      2 (79.6 %)      3 (76.9 %)
        Total: 306.0%
Initial condition solution time: CPU = 376 us, elapsed = 386.953 us.
Intrinsic tran analysis time:    CPU = 22.025 ms, elapsed = 60.751 ms.
Total time required for tran analysis `transient1_transient1': CPU = 24.377 ms, elapsed = 63.112 ms.
Time accumulated: CPU = 1.00586 s, elapsed = 4.92234 s.
Peak resident memory used = 132 Mbytes.

         MDL montecarlo: iteration = 29   ( 58.00% ) complete.

*****************************************************************
Transient Analysis `transient1_transient1': time = (0 s -> 40 ns)
*****************************************************************

Opening the PSFXL file teste_spectre/inverter.raw/transient1_transient1.tran.tran ...
DC simulation time: CPU = 313 us, elapsed = 313.997 us.
Important parameter values:
    start = 0 s
    outputstart = 0 s
    stop = 40 ns
    step = 40 ps
    maxstep = 800 ps
    ic = all
    useprevic = no
    skipdc = no
    reltol = 1e-03
    abstol(V) = 1 uV
    abstol(I) = 1 pA
    temp = -25 C
    tnom = 27 C
    tempeffects = all
    errpreset = moderate
    method = trap
    lteratio = 3.5
    relref = sigglobal
    cmin = 0 F
    gmin = 1 pS


Output and IC/nodeset summary:
                 probe  12      
                 save   2       (current)
                 save   3       (voltage)

.................9.................8.................7.................6.................5.................4.................3.................2.................1.................0
Number of accepted tran steps =             123

Maximum value achieved for any signal of each quantity: 
V: V(Z) = 712 mV
I: I(VX:p) = 27.41 uA
If your circuit contains signals of the same quantity that are vastly different in size (such as high voltage circuitry combined with low voltage control circuitry), you should consider specifying global option `bin_relref=yes'.

~~~~~~~~~~~~~~~~~~~~~~~~~~~~~~~~~
Post-Transient Simulation Summary
~~~~~~~~~~~~~~~~~~~~~~~~~~~~~~~~~
   -   To further speed up simulation, consider
          add ++aps on command line
~~~~~~~~~~~~~~~~~~~~~~~~~~~~~~~~~


During simulation, the CPU load for active processors is :
         0 (75.4 %)      1 (74.7 %)      2 (79.8 %)      3 (76.9 %)
        Total: 306.8%
Initial condition solution time: CPU = 379 us, elapsed = 382.185 us.
Intrinsic tran analysis time:    CPU = 18.486 ms, elapsed = 57.148 ms.
Total time required for tran analysis `transient1_transient1': CPU = 21.251 ms, elapsed = 59.9291 ms.
Time accumulated: CPU = 1.03014 s, elapsed = 5.02754 s.
Peak resident memory used = 132 Mbytes.

         MDL montecarlo: iteration = 30   ( 60.00% ) complete.

*****************************************************************
Transient Analysis `transient1_transient1': time = (0 s -> 40 ns)
*****************************************************************

Opening the PSFXL file teste_spectre/inverter.raw/transient1_transient1.tran.tran ...
DC simulation time: CPU = 297 us, elapsed = 298.023 us.
Important parameter values:
    start = 0 s
    outputstart = 0 s
    stop = 40 ns
    step = 40 ps
    maxstep = 800 ps
    ic = all
    useprevic = no
    skipdc = no
    reltol = 1e-03
    abstol(V) = 1 uV
    abstol(I) = 1 pA
    temp = -25 C
    tnom = 27 C
    tempeffects = all
    errpreset = moderate
    method = trap
    lteratio = 3.5
    relref = sigglobal
    cmin = 0 F
    gmin = 1 pS


Output and IC/nodeset summary:
                 probe  12      
                 save   2       (current)
                 save   3       (voltage)

.................9.................8.................7.................6.................5.................4.................3.................2.................1.................0
Number of accepted tran steps =             127

Maximum value achieved for any signal of each quantity: 
V: V(Z) = 711.9 mV
I: I(VX:p) = 36.99 uA
If your circuit contains signals of the same quantity that are vastly different in size (such as high voltage circuitry combined with low voltage control circuitry), you should consider specifying global option `bin_relref=yes'.

~~~~~~~~~~~~~~~~~~~~~~~~~~~~~~~~~
Post-Transient Simulation Summary
~~~~~~~~~~~~~~~~~~~~~~~~~~~~~~~~~
   -   To further speed up simulation, consider
          add ++aps on command line
~~~~~~~~~~~~~~~~~~~~~~~~~~~~~~~~~


During simulation, the CPU load for active processors is :
         0 (75.6 %)      1 (74.5 %)      2 (79.8 %)      3 (77.0 %)
        Total: 306.9%
Initial condition solution time: CPU = 365 us, elapsed = 366.926 us.
Intrinsic tran analysis time:    CPU = 20.804 ms, elapsed = 56.993 ms.
Total time required for tran analysis `transient1_transient1': CPU = 23.505 ms, elapsed = 59.71 ms.
Time accumulated: CPU = 1.05672 s, elapsed = 5.12339 s.
Peak resident memory used = 132 Mbytes.

         MDL montecarlo: iteration = 31   ( 62.00% ) complete.

*****************************************************************
Transient Analysis `transient1_transient1': time = (0 s -> 40 ns)
*****************************************************************

Opening the PSFXL file teste_spectre/inverter.raw/transient1_transient1.tran.tran ...
DC simulation time: CPU = 288 us, elapsed = 289.202 us.
Important parameter values:
    start = 0 s
    outputstart = 0 s
    stop = 40 ns
    step = 40 ps
    maxstep = 800 ps
    ic = all
    useprevic = no
    skipdc = no
    reltol = 1e-03
    abstol(V) = 1 uV
    abstol(I) = 1 pA
    temp = -25 C
    tnom = 27 C
    tempeffects = all
    errpreset = moderate
    method = trap
    lteratio = 3.5
    relref = sigglobal
    cmin = 0 F
    gmin = 1 pS


Output and IC/nodeset summary:
                 probe  12      
                 save   2       (current)
                 save   3       (voltage)

.................9.................8.................7.................6.................5.................4.................3.................2.................1.................0
Number of accepted tran steps =             132

Maximum value achieved for any signal of each quantity: 
V: V(Z) = 710.5 mV
I: I(VX:p) = 41.01 uA
If your circuit contains signals of the same quantity that are vastly different in size (such as high voltage circuitry combined with low voltage control circuitry), you should consider specifying global option `bin_relref=yes'.

~~~~~~~~~~~~~~~~~~~~~~~~~~~~~~~~~
Post-Transient Simulation Summary
~~~~~~~~~~~~~~~~~~~~~~~~~~~~~~~~~
   -   To further speed up simulation, consider
          add ++aps on command line
~~~~~~~~~~~~~~~~~~~~~~~~~~~~~~~~~


During simulation, the CPU load for active processors is :
         0 (75.7 %)      1 (74.7 %)      2 (79.8 %)      3 (77.4 %)
        Total: 307.6%
Initial condition solution time: CPU = 359 us, elapsed = 360.966 us.
Intrinsic tran analysis time:    CPU = 19.768 ms, elapsed = 59.8109 ms.
Total time required for tran analysis `transient1_transient1': CPU = 22.296 ms, elapsed = 62.346 ms.
Time accumulated: CPU = 1.08225 s, elapsed = 5.21502 s.
Peak resident memory used = 132 Mbytes.

         MDL montecarlo: iteration = 32   ( 64.00% ) complete.

*****************************************************************
Transient Analysis `transient1_transient1': time = (0 s -> 40 ns)
*****************************************************************

Opening the PSFXL file teste_spectre/inverter.raw/transient1_transient1.tran.tran ...
DC simulation time: CPU = 346 us, elapsed = 348.091 us.
Important parameter values:
    start = 0 s
    outputstart = 0 s
    stop = 40 ns
    step = 40 ps
    maxstep = 800 ps
    ic = all
    useprevic = no
    skipdc = no
    reltol = 1e-03
    abstol(V) = 1 uV
    abstol(I) = 1 pA
    temp = -25 C
    tnom = 27 C
    tempeffects = all
    errpreset = moderate
    method = trap
    lteratio = 3.5
    relref = sigglobal
    cmin = 0 F
    gmin = 1 pS


Output and IC/nodeset summary:
                 probe  12      
                 save   2       (current)
                 save   3       (voltage)

.................9.................8.................7.................6.................5.................4.................3.................2.................1.................0
Number of accepted tran steps =             123

Maximum value achieved for any signal of each quantity: 
V: V(Z) = 711.9 mV
I: I(VX:p) = 27.37 uA
If your circuit contains signals of the same quantity that are vastly different in size (such as high voltage circuitry combined with low voltage control circuitry), you should consider specifying global option `bin_relref=yes'.

~~~~~~~~~~~~~~~~~~~~~~~~~~~~~~~~~
Post-Transient Simulation Summary
~~~~~~~~~~~~~~~~~~~~~~~~~~~~~~~~~
   -   To further speed up simulation, consider
          add ++aps on command line
~~~~~~~~~~~~~~~~~~~~~~~~~~~~~~~~~


During simulation, the CPU load for active processors is :
         0 (75.7 %)      1 (75.0 %)      2 (79.7 %)      3 (77.6 %)
        Total: 308.0%
Initial condition solution time: CPU = 441 us, elapsed = 443.935 us.
Intrinsic tran analysis time:    CPU = 20.021 ms, elapsed = 49.6569 ms.
Total time required for tran analysis `transient1_transient1': CPU = 22.698 ms, elapsed = 52.3469 ms.
Time accumulated: CPU = 1.10814 s, elapsed = 5.29673 s.
Peak resident memory used = 132 Mbytes.

         MDL montecarlo: iteration = 33   ( 66.00% ) complete.

*****************************************************************
Transient Analysis `transient1_transient1': time = (0 s -> 40 ns)
*****************************************************************

Opening the PSFXL file teste_spectre/inverter.raw/transient1_transient1.tran.tran ...
DC simulation time: CPU = 277 us, elapsed = 277.042 us.
Important parameter values:
    start = 0 s
    outputstart = 0 s
    stop = 40 ns
    step = 40 ps
    maxstep = 800 ps
    ic = all
    useprevic = no
    skipdc = no
    reltol = 1e-03
    abstol(V) = 1 uV
    abstol(I) = 1 pA
    temp = -25 C
    tnom = 27 C
    tempeffects = all
    errpreset = moderate
    method = trap
    lteratio = 3.5
[...]

.................9.................8.................7.................6.................5.................4.................3.................2.................1.................0
Number of accepted tran steps =             117

Maximum value achieved for any signal of each quantity: 
V: V(Z) = 706.6 mV
I: I(VX:p) = 32.25 uA
If your circuit contains signals of the same quantity that are vastly different in size (such as high voltage circuitry combined with low voltage control circuitry), you should consider specifying global option `bin_relref=yes'.

~~~~~~~~~~~~~~~~~~~~~~~~~~~~~~~~~
Post-Transient Simulation Summary
~~~~~~~~~~~~~~~~~~~~~~~~~~~~~~~~~
   -   To further speed up simulation, consider
          add ++aps on command line
~~~~~~~~~~~~~~~~~~~~~~~~~~~~~~~~~


During simulation, the CPU load for active processors is :
         0 (78.1 %)      1 (77.2 %)      2 (78.3 %)      3 (78.1 %)
        Total: 311.8%
Initial condition solution time: CPU = 432 us, elapsed = 445.843 us.
Intrinsic tran analysis time:    CPU = 20.755 ms, elapsed = 66.273 ms.
Total time required for tran analysis `transient1_transient1': CPU = 23.526 ms, elapsed = 69.0641 ms.
Time accumulated: CPU = 7.92258 s, elapsed = 37.0382 s.
Peak resident memory used = 134 Mbytes.

         MDL montecarlo: iteration = 42   ( 84.00% ) complete.

*****************************************************************
Transient Analysis `transient1_transient1': time = (0 s -> 40 ns)
*****************************************************************

Opening the PSFXL file teste_spectre/inverter.raw/transient1_transient1.tran.tran ...
DC simulation time: CPU = 307 us, elapsed = 313.997 us.
Important parameter values:
    start = 0 s
    outputstart = 0 s
    stop = 40 ns
    step = 40 ps
    maxstep = 800 ps
    ic = all
    useprevic = no
    skipdc = no
    reltol = 1e-03
    abstol(V) = 1 uV
    abstol(I) = 1 pA
    temp = 100 C
    tnom = 27 C
    tempeffects = all
    errpreset = moderate
    method = trap
    lteratio = 3.5
    relref = sigglobal
    cmin = 0 F
    gmin = 1 pS


Output and IC/nodeset summary:
                 probe  12      
                 save   2       (current)
                 save   3       (voltage)

.................9.................8.................7.................6.................5.................4.................3.................2.................1.................0
Number of accepted tran steps =             126

Maximum value achieved for any signal of each quantity: 
V: V(Z) = 708.8 mV
I: I(VX:p) = 31.26 uA
If your circuit contains signals of the same quantity that are vastly different in size (such as high voltage circuitry combined with low voltage control circuitry), you should consider specifying global option `bin_relref=yes'.

~~~~~~~~~~~~~~~~~~~~~~~~~~~~~~~~~
Post-Transient Simulation Summary
~~~~~~~~~~~~~~~~~~~~~~~~~~~~~~~~~
   -   To further speed up simulation, consider
          add ++aps on command line
~~~~~~~~~~~~~~~~~~~~~~~~~~~~~~~~~


During simulation, the CPU load for active processors is :
         0 (78.1 %)      1 (77.2 %)      2 (78.3 %)      3 (78.2 %)
        Total: 311.9%
Initial condition solution time: CPU = 390 us, elapsed = 397.921 us.
Intrinsic tran analysis time:    CPU = 22.066 ms, elapsed = 67.5671 ms.
Total time required for tran analysis `transient1_transient1': CPU = 24.519 ms, elapsed = 70.056 ms.
Time accumulated: CPU = 7.95004 s, elapsed = 37.1483 s.
Peak resident memory used = 134 Mbytes.

         MDL montecarlo: iteration = 43   ( 86.00% ) complete.

*****************************************************************
Transient Analysis `transient1_transient1': time = (0 s -> 40 ns)
*****************************************************************

Opening the PSFXL file teste_spectre/inverter.raw/transient1_transient1.tran.tran ...
DC simulation time: CPU = 321 us, elapsed = 321.15 us.
Important parameter values:
    start = 0 s
    outputstart = 0 s
    stop = 40 ns
    step = 40 ps
    maxstep = 800 ps
    ic = all
    useprevic = no
    skipdc = no
    reltol = 1e-03
    abstol(V) = 1 uV
    abstol(I) = 1 pA
    temp = 100 C
    tnom = 27 C
    tempeffects = all
    errpreset = moderate
    method = trap
    lteratio = 3.5
    relref = sigglobal
    cmin = 0 F
    gmin = 1 pS


Output and IC/nodeset summary:
                 probe  12      
                 save   2       (current)
                 save   3       (voltage)

.................9.................8.................7.................6.................5.................4.................3.................2.................1.................0
Number of accepted tran steps =             119

Maximum value achieved for any signal of each quantity: 
V: V(Z) = 708.1 mV
I: I(VX:p) = 32.35 uA
If your circuit contains signals of the same quantity that are vastly different in size (such as high voltage circuitry combined with low voltage control circuitry), you should consider specifying global option `bin_relref=yes'.

~~~~~~~~~~~~~~~~~~~~~~~~~~~~~~~~~
Post-Transient Simulation Summary
~~~~~~~~~~~~~~~~~~~~~~~~~~~~~~~~~
   -   To further speed up simulation, consider
          add ++aps on command line
~~~~~~~~~~~~~~~~~~~~~~~~~~~~~~~~~


During simulation, the CPU load for active processors is :
         0 (78.1 %)      1 (77.2 %)      2 (78.3 %)      3 (78.1 %)
        Total: 311.8%
Initial condition solution time: CPU = 397 us, elapsed = 400.066 us.
Intrinsic tran analysis time:    CPU = 18.131 ms, elapsed = 64.7669 ms.
Total time required for tran analysis `transient1_transient1': CPU = 20.706 ms, elapsed = 67.3509 ms.
Time accumulated: CPU = 7.97376 s, elapsed = 37.2787 s.
Peak resident memory used = 134 Mbytes.

         MDL montecarlo: iteration = 44   ( 88.00% ) complete.

*****************************************************************
Transient Analysis `transient1_transient1': time = (0 s -> 40 ns)
*****************************************************************

Opening the PSFXL file teste_spectre/inverter.raw/transient1_transient1.tran.tran ...
DC simulation time: CPU = 313 us, elapsed = 313.997 us.
Important parameter values:
    start = 0 s
    outputstart = 0 s
    stop = 40 ns
    step = 40 ps
    maxstep = 800 ps
    ic = all
    useprevic = no
    skipdc = no
    reltol = 1e-03
    abstol(V) = 1 uV
    abstol(I) = 1 pA
    temp = 100 C
    tnom = 27 C
    tempeffects = all
    errpreset = moderate
    method = trap
    lteratio = 3.5
    relref = sigglobal
    cmin = 0 F
    gmin = 1 pS


Output and IC/nodeset summary:
                 probe  12      
                 save   2       (current)
                 save   3       (voltage)

.................9.................8.................7.................6.................5.................4.................3.................2.................1.................0
Number of accepted tran steps =             119

Maximum value achieved for any signal of each quantity: 
V: V(Z) = 709.8 mV
I: I(VX:p) = 32.31 uA
If your circuit contains signals of the same quantity that are vastly different in size (such as high voltage circuitry combined with low voltage control circuitry), you should consider specifying global option `bin_relref=yes'.

~~~~~~~~~~~~~~~~~~~~~~~~~~~~~~~~~
Post-Transient Simulation Summary
~~~~~~~~~~~~~~~~~~~~~~~~~~~~~~~~~
   -   To further speed up simulation, consider
          add ++aps on command line
~~~~~~~~~~~~~~~~~~~~~~~~~~~~~~~~~


During simulation, the CPU load for active processors is :
         0 (78.1 %)      1 (77.3 %)      2 (78.3 %)      3 (78.2 %)
        Total: 311.9%
Initial condition solution time: CPU = 398 us, elapsed = 400.066 us.
Intrinsic tran analysis time:    CPU = 19.618 ms, elapsed = 65.0239 ms.
Total time required for tran analysis `transient1_transient1': CPU = 22.201 ms, elapsed = 67.616 ms.
Time accumulated: CPU = 7.99908 s, elapsed = 37.3881 s.
Peak resident memory used = 134 Mbytes.

         MDL montecarlo: iteration = 45   ( 90.00% ) complete.

*****************************************************************
Transient Analysis `transient1_transient1': time = (0 s -> 40 ns)
*****************************************************************

Opening the PSFXL file teste_spectre/inverter.raw/transient1_transient1.tran.tran ...
DC simulation time: CPU = 333 us, elapsed = 340.939 us.
Important parameter values:
    start = 0 s
    outputstart = 0 s
    stop = 40 ns
    step = 40 ps
    maxstep = 800 ps
    ic = all
    useprevic = no
    skipdc = no
    reltol = 1e-03
    abstol(V) = 1 uV
    abstol(I) = 1 pA
    temp = 100 C
    tnom = 27 C
    tempeffects = all
    errpreset = moderate
    method = trap
    lteratio = 3.5
    relref = sigglobal
    cmin = 0 F
    gmin = 1 pS


Output and IC/nodeset summary:
                 probe  12      
                 save   2       (current)
                 save   3       (voltage)

.................9.................8.................7.................6.................5.................4.................3.................2.................1.................0
Number of accepted tran steps =             133

Maximum value achieved for any signal of each quantity: 
V: V(Z) = 706.8 mV
I: I(VX:p) = 33.95 uA
If your circuit contains signals of the same quantity that are vastly different in size (such as high voltage circuitry combined with low voltage control circuitry), you should consider specifying global option `bin_relref=yes'.

~~~~~~~~~~~~~~~~~~~~~~~~~~~~~~~~~
Post-Transient Simulation Summary
~~~~~~~~~~~~~~~~~~~~~~~~~~~~~~~~~
   -   To further speed up simulation, consider
          add ++aps on command line
~~~~~~~~~~~~~~~~~~~~~~~~~~~~~~~~~


During simulation, the CPU load for active processors is :
         0 (78.1 %)      1 (77.3 %)      2 (78.3 %)      3 (78.2 %)
        Total: 311.9%
Initial condition solution time: CPU = 421 us, elapsed = 429.869 us.
Intrinsic tran analysis time:    CPU = 17.736 ms, elapsed = 85.762 ms.
Total time required for tran analysis `transient1_transient1': CPU = 20.445 ms, elapsed = 88.479 ms.
Time accumulated: CPU = 8.02254 s, elapsed = 37.5193 s.
Peak resident memory used = 134 Mbytes.

         MDL montecarlo: iteration = 46   ( 92.00% ) complete.

*****************************************************************
Transient Analysis `transient1_transient1': time = (0 s -> 40 ns)
*****************************************************************

Opening the PSFXL file teste_spectre/inverter.raw/transient1_transient1.tran.tran ...
DC simulation time: CPU = 314 us, elapsed = 326.157 us.
Important parameter values:
    start = 0 s
    outputstart = 0 s
    stop = 40 ns
    step = 40 ps
    maxstep = 800 ps
    ic = all
    useprevic = no
    skipdc = no
    reltol = 1e-03
    abstol(V) = 1 uV
    abstol(I) = 1 pA
    temp = 100 C
    tnom = 27 C
    tempeffects = all
    errpreset = moderate
    method = trap
    lteratio = 3.5
    relref = sigglobal
    cmin = 0 F
    gmin = 1 pS


Output and IC/nodeset summary:
                 probe  12      
                 save   2       (current)
                 save   3       (voltage)

.................9.................8.................7.................6.................5.................4.................3.................2.................1.................0
Number of accepted tran steps =             131

Maximum value achieved for any signal of each quantity: 
V: V(Z) = 707.7 mV
I: I(VX:p) = 34.65 uA
If your circuit contains signals of the same quantity that are vastly different in size (such as high voltage circuitry combined with low voltage control circuitry), you should consider specifying global option `bin_relref=yes'.

~~~~~~~~~~~~~~~~~~~~~~~~~~~~~~~~~
Post-Transient Simulation Summary
~~~~~~~~~~~~~~~~~~~~~~~~~~~~~~~~~
   -   To further speed up simulation, consider
          add ++aps on command line
~~~~~~~~~~~~~~~~~~~~~~~~~~~~~~~~~


During simulation, the CPU load for active processors is :
         0 (78.1 %)      1 (77.2 %)      2 (78.3 %)      3 (78.2 %)
        Total: 311.9%
Initial condition solution time: CPU = 400 us, elapsed = 412.941 us.
Intrinsic tran analysis time:    CPU = 20.961 ms, elapsed = 57.2209 ms.
Total time required for tran analysis `transient1_transient1': CPU = 23.747 ms, elapsed = 60.0321 ms.
Time accumulated: CPU = 8.04962 s, elapsed = 37.6235 s.
Peak resident memory used = 134 Mbytes.

         MDL montecarlo: iteration = 47   ( 94.00% ) complete.

*****************************************************************
Transient Analysis `transient1_transient1': time = (0 s -> 40 ns)
*****************************************************************

Opening the PSFXL file teste_spectre/inverter.raw/transient1_transient1.tran.tran ...
DC simulation time: CPU = 320 us, elapsed = 327.11 us.
Important parameter values:
    start = 0 s
    outputstart = 0 s
    stop = 40 ns
    step = 40 ps
    maxstep = 800 ps
    ic = all
    useprevic = no
    skipdc = no
    reltol = 1e-03
    abstol(V) = 1 uV
    abstol(I) = 1 pA
    temp = 100 C
    tnom = 27 C
    tempeffects = all
    errpreset = moderate
    method = trap
    lteratio = 3.5
    relref = sigglobal
    cmin = 0 F
    gmin = 1 pS


Output and IC/nodeset summary:
                 probe  12      
                 save   2       (current)
                 save   3       (voltage)

.................9.................8.................7.................6.................5.................4.................3.................2.................1.................0
Number of accepted tran steps =             131

Maximum value achieved for any signal of each quantity: 
V: V(Z) = 709.2 mV
I: I(VX:p) = 31.35 uA
If your circuit contains signals of the same quantity that are vastly different in size (such as high voltage circuitry combined with low voltage control circuitry), you should consider specifying global option `bin_relref=yes'.

~~~~~~~~~~~~~~~~~~~~~~~~~~~~~~~~~
Post-Transient Simulation Summary
~~~~~~~~~~~~~~~~~~~~~~~~~~~~~~~~~
   -   To further speed up simulation, consider
          add ++aps on command line
~~~~~~~~~~~~~~~~~~~~~~~~~~~~~~~~~


During simulation, the CPU load for active processors is :
         0 (78.0 %)      1 (77.1 %)      2 (78.2 %)      3 (78.1 %)
        Total: 311.4%
Initial condition solution time: CPU = 405 us, elapsed = 412.941 us.
Intrinsic tran analysis time:    CPU = 18.14 ms, elapsed = 155.757 ms.
Total time required for tran analysis `transient1_transient1': CPU = 20.725 ms, elapsed = 158.355 ms.
Time accumulated: CPU = 8.07356 s, elapsed = 37.8205 s.
Peak resident memory used = 134 Mbytes.

         MDL montecarlo: iteration = 48   ( 96.00% ) complete.

*****************************************************************
Transient Analysis `transient1_transient1': time = (0 s -> 40 ns)
*****************************************************************

Opening the PSFXL file teste_spectre/inverter.raw/transient1_transient1.tran.tran ...
DC simulation time: CPU = 295 us, elapsed = 295.877 us.
Important parameter values:
    start = 0 s
    outputstart = 0 s
    stop = 40 ns
    step = 40 ps
    maxstep = 800 ps
    ic = all
    useprevic = no
    skipdc = no
    reltol = 1e-03
    abstol(V) = 1 uV
    abstol(I) = 1 pA
    temp = 100 C
    tnom = 27 C
    tempeffects = all
    errpreset = moderate
    method = trap
    lteratio = 3.5
    relref = sigglobal
    cmin = 0 F
    gmin = 1 pS


Output and IC/nodeset summary:
                 probe  12      
                 save   2       (current)
                 save   3       (voltage)

.................9.................8.................7.................6.................5.................4.................3.................2.................1.................0
Number of accepted tran steps =             132

Maximum value achieved for any signal of each quantity: 
V: V(Z) = 709.1 mV
I: I(VX:p) = 30.88 uA
If your circuit contains signals of the same quantity that are vastly different in size (such as high voltage circuitry combined with low voltage control circuitry), you should consider specifying global option `bin_relref=yes'.

~~~~~~~~~~~~~~~~~~~~~~~~~~~~~~~~~
Post-Transient Simulation Summary
~~~~~~~~~~~~~~~~~~~~~~~~~~~~~~~~~
   -   To further speed up simulation, consider
          add ++aps on command line
~~~~~~~~~~~~~~~~~~~~~~~~~~~~~~~~~


During simulation, the CPU load for active processors is :
         0 (77.8 %)      1 (76.9 %)      2 (78.0 %)      3 (77.9 %)
        Total: 310.6%
Initial condition solution time: CPU = 365 us, elapsed = 366.926 us.
Intrinsic tran analysis time:    CPU = 19.642 ms, elapsed = 165.778 ms.
Total time required for tran analysis `transient1_transient1': CPU = 21.957 ms, elapsed = 168.103 ms.
Time accumulated: CPU = 8.09858 s, elapsed = 38.0306 s.
Peak resident memory used = 134 Mbytes.

         MDL montecarlo: iteration = 49   ( 98.00% ) complete.

*****************************************************************
Transient Analysis `transient1_transient1': time = (0 s -> 40 ns)
*****************************************************************

Opening the PSFXL file teste_spectre/inverter.raw/transient1_transient1.tran.tran ...
DC simulation time: CPU = 309 us, elapsed = 308.99 us.
Important parameter values:
    start = 0 s
    outputstart = 0 s
    stop = 40 ns
    step = 40 ps
    maxstep = 800 ps
    ic = all
    useprevic = no
    skipdc = no
    reltol = 1e-03
    abstol(V) = 1 uV
    abstol(I) = 1 pA
    temp = 100 C
    tnom = 27 C
    tempeffects = all
    errpreset = moderate
    method = trap
    lteratio = 3.5
    relref = sigglobal
    cmin = 0 F
    gmin = 1 pS


Output and IC/nodeset summary:
                 probe  12      
                 save   2       (current)
                 save   3       (voltage)

.................9.................8.................7.................6.................5.................4.................3.................2.................1.................0
Number of accepted tran steps =             132

Maximum value achieved for any signal of each quantity: 
V: V(Z) = 707.2 mV
I: I(VX:p) = 34.34 uA
If your circuit contains signals of the same quantity that are vastly different in size (such as high voltage circuitry combined with low voltage control circuitry), you should consider specifying global option `bin_relref=yes'.

~~~~~~~~~~~~~~~~~~~~~~~~~~~~~~~~~
Post-Transient Simulation Summary
~~~~~~~~~~~~~~~~~~~~~~~~~~~~~~~~~
   -   To further speed up simulation, consider
          add ++aps on command line
~~~~~~~~~~~~~~~~~~~~~~~~~~~~~~~~~


During simulation, the CPU load for active processors is :
         0 (77.7 %)      1 (76.8 %)      2 (77.8 %)      3 (77.8 %)
        Total: 310.1%
Initial condition solution time: CPU = 382 us, elapsed = 389.099 us.
Intrinsic tran analysis time:    CPU = 20.915 ms, elapsed = 163.297 ms.
Total time required for tran analysis `transient1_transient1': CPU = 23.491 ms, elapsed = 165.888 ms.
Time accumulated: CPU = 8.1253 s, elapsed = 38.2369 s.
Peak resident memory used = 134 Mbytes.

         MDL montecarlo: iteration = 50   ( 100.00% ) complete.

name            max             min             mean            stddev          skewness        
iint            -7.40529e-16    -1.22982e-15    -7.98684e-16    9.38759e-17     -3.4383         
total_power     -1.29593e-08    -2.15219e-08    -1.3977e-08     1.64283e-09     -3.4383         
tphl            1.98623e-11     1.09779e-11     1.37278e-11     1.77616e-12     1.42832         
tplh            2.15396e-11     1.21367e-11     1.63115e-11     2.41873e-12     0.589977        


Aggregate audit (7:02:59 PM, Thur May 25, 2023):
Time used: CPU = 8.15 s, elapsed = 38.4 s, util. = 21.2%.
Time spent in licensing: elapsed = 19.3 ms.
Peak memory used = 136 Mbytes.
Simulation started at: 7:02:20 PM, Thur May 25, 2023, ended at: 7:02:59 PM, Thur May 25, 2023, with elapsed time (wall clock): 38.4 s.
spectre completes with 0 errors, 0 warnings, and 1 notice.
