
Spectre (R) Circuit Simulator
Version 19.1.0.578.isr15 64bit -- 27 Jan 2021
Copyright (C) 1989-2020 Cadence Design Systems, Inc. All rights reserved worldwide. Cadence and Spectre are registered trademarks of Cadence Design Systems, Inc. All others are the property of their respective holders.

Includes RSA BSAFE(R) Cryptographic or Security Protocol Software from RSA Security, Inc.

User: gabriel.jacinto   Host: virmic01   HostID: A296C20A   PID: 1648130
Memory  available: 162.1975 MB  physical: 3.9992 GB
Linux   : Rocky Linux release 8.5 (Green Obsidian)
CPU Type: Intel(R) Core(TM) i3-3240 CPU @ 3.40GHz
All processors running at 3400.0 MHz
        Socket: Processors (Hyperthreaded Processor)
        0:       0 (  2 ),  1 (  3 )
        
System load averages (1min, 5min, 15min) : 14.2 %, 10.8 %, 17.8 %
Hyperthreading is enabled


Simulating `inverter.sp' on virmic01 at 3:28:12 PM, Thur May 25, 2023 (process id: 1648130).
Current working directory: /home/100000000981355/Desktop/PIC2020/FINFET/7nm/NOT/Data/sim1
Environment variable:
    SPECTRE_DEFAULTS=-E
Command line:
    /usr/eda/cadence/spectre1910_578/tools.lnx86/bin/spectre -64  \
        -outdir teste2 inverter.sp

Loading /usr/eda/cadence/spectre1910_578/tools.lnx86/cmi/lib/64bit/5.0/libinfineon_sh.so ...
Loading /usr/eda/cadence/spectre1910_578/tools.lnx86/cmi/lib/64bit/5.0/libphilips_o_sh.so ...
Loading /usr/eda/cadence/spectre1910_578/tools.lnx86/cmi/lib/64bit/5.0/libphilips_sh.so ...
Loading /usr/eda/cadence/spectre1910_578/tools.lnx86/cmi/lib/64bit/5.0/libsparam_sh.so ...
Loading /usr/eda/cadence/spectre1910_578/tools.lnx86/cmi/lib/64bit/5.0/libstmodels_sh.so ...
Reading file:  /home/100000000981355/Desktop/PIC2020/FINFET/7nm/NOT/Data/sim1/inverter.sp
Reading file:  /usr/eda/cadence/spectre1910_578/tools.lnx86/spectre/etc/configs/spectre.cfg
Reading file:  /usr/include/stdc-predef.h
Reading file:  /home/100000000981355/Desktop/PIC2020/FINFET/7nm/NOT/Data/lib/FET_TT.pm
Time for NDB Parsing: CPU = 83.051 ms, elapsed = 589.288 ms.
Time accumulated: CPU = 125.686 ms, elapsed = 589.291 ms.
Peak resident memory used = 102 Mbytes.

Time for Elaboration: CPU = 31.705 ms, elapsed = 31.888 ms.
Time accumulated: CPU = 157.618 ms, elapsed = 621.406 ms.
Peak resident memory used = 112 Mbytes.

Loading /usr/eda/cadence/spectre1910_578/tools.lnx86/spectre/lib/64bit/mdl/libSpectreEH_sh.so ...

Time for EDB Visiting: CPU = 37.809 ms, elapsed = 38.512 ms.
Time accumulated: CPU = 195.665 ms, elapsed = 660.153 ms.
Peak resident memory used = 123 Mbytes.


Global user options:
               save = all

Scoped user options:

Circuit inventory:
              nodes 3
            bsimcmg 2     
          capacitor 1     
            vsource 2     

Analysis and control statement inventory:
         montecarlo 1     
              sweep 1     
               tran 1     

Output statements:
             .probe 0     
           .measure 4     
               save 0     

Time for parsing: CPU = 2.808 ms, elapsed = 77.8232 ms.
Time accumulated: CPU = 198.687 ms, elapsed = 738.192 ms.
Peak resident memory used = 126 Mbytes.

~~~~~~~~~~~~~~~~~~~~~~
Pre-Simulation Summary
~~~~~~~~~~~~~~~~~~~~~~
~~~~~~~~~~~~~~~~~~~~~~


************************************************
MDL montecarlo analysis: iteration = (1 -> 50).
************************************************
Important parameter values:
    seed = 1234
    sampling = standard
    variations = process
    ignoremode = default
    firstrun = 1
    numruns = 50
    nullmfactorcorrelation = no
    donominal = yes
    method = standard

**** Performing nominal run for MDL montecarlo.

*****************************************************************
Transient Analysis `transient1_transient1': time = (0 s -> 40 ns)
*****************************************************************

Opening the PSFXL file teste2/inverter.raw/transient1_transient1.tran.tran ...
DC simulation time: CPU = 421 us, elapsed = 422.001 us.
Important parameter values:
    start = 0 s
    outputstart = 0 s
    stop = 40 ns
    step = 40 ps
    maxstep = 800 ps
    ic = all
    useprevic = no
    skipdc = no
    reltol = 1e-03
    abstol(V) = 1 uV
    abstol(I) = 1 pA
    temp = -25 C
    tnom = 27 C
    tempeffects = all
    errpreset = moderate
    method = trap
    lteratio = 3.5
    relref = sigglobal
    cmin = 0 F
    gmin = 1 pS


Output and IC/nodeset summary:
                 probe  12      
                 save   2       (current)
                 save   3       (voltage)

.................9.................8.................7.................6.................5.................4.................3.................2.................1.................0
Number of accepted tran steps =             133

Maximum value achieved for any signal of each quantity: 
V: V(Z) = 710.2 mV
I: I(VX:p) = 36.08 uA
If your circuit contains signals of the same quantity that are vastly different in size (such as high voltage circuitry combined with low voltage control circuitry), you should consider specifying global option `bin_relref=yes'.

~~~~~~~~~~~~~~~~~~~~~~~~~~~~~~~~~
Post-Transient Simulation Summary
~~~~~~~~~~~~~~~~~~~~~~~~~~~~~~~~~
   -   To further speed up simulation, consider
          add ++aps on command line
~~~~~~~~~~~~~~~~~~~~~~~~~~~~~~~~~


During simulation, the CPU load for active processors is :
         0 (58.0 %)      1 (50.0 %)      2 (57.8 %)      3 (56.8 %)
        Total: 222.6%
Initial condition solution time: CPU = 509 us, elapsed = 511.885 us.
Intrinsic tran analysis time:    CPU = 23.755 ms, elapsed = 70.7831 ms.
Total time required for tran analysis `transient1_transient1': CPU = 26.824 ms, elapsed = 73.874 ms.
Time accumulated: CPU = 240.173 ms, elapsed = 971.392 ms.
Peak resident memory used = 130 Mbytes.


*****************************************************************
Transient Analysis `transient1_transient1': time = (0 s -> 40 ns)
*****************************************************************

Opening the PSFXL file teste2/inverter.raw/transient1_transient1.tran.tran ...
DC simulation time: CPU = 328 us, elapsed = 329.018 us.
Important parameter values:
    start = 0 s
    outputstart = 0 s
    stop = 40 ns
    step = 40 ps
    maxstep = 800 ps
    ic = all
    useprevic = no
    skipdc = no
    reltol = 1e-03
    abstol(V) = 1 uV
    abstol(I) = 1 pA
    temp = -25 C
    tnom = 27 C
    tempeffects = all
    errpreset = moderate
    method = trap
    lteratio = 3.5
    relref = sigglobal
    cmin = 0 F
    gmin = 1 pS


Output and IC/nodeset summary:
                 probe  12      
                 save   2       (current)
                 save   3       (voltage)

.................9.................8.................7.................6.................5.................4.................3.................2.................1.................0
Number of accepted tran steps =             125

Maximum value achieved for any signal of each quantity: 
V: V(Z) = 710.1 mV
I: I(VX:p) = 39.74 uA
If your circuit contains signals of the same quantity that are vastly different in size (such as high voltage circuitry combined with low voltage control circuitry), you should consider specifying global option `bin_relref=yes'.

~~~~~~~~~~~~~~~~~~~~~~~~~~~~~~~~~
Post-Transient Simulation Summary
~~~~~~~~~~~~~~~~~~~~~~~~~~~~~~~~~
   -   To further speed up simulation, consider
          add ++aps on command line
~~~~~~~~~~~~~~~~~~~~~~~~~~~~~~~~~


During simulation, the CPU load for active processors is :
         0 (61.6 %)      1 (54.5 %)      2 (61.4 %)      3 (59.6 %)
        Total: 237.1%
Initial condition solution time: CPU = 400 us, elapsed = 402.927 us.
Intrinsic tran analysis time:    CPU = 20.425 ms, elapsed = 56.453 ms.
Total time required for tran analysis `transient1_transient1': CPU = 23.094 ms, elapsed = 59.849 ms.
Time accumulated: CPU = 266.878 ms, elapsed = 1.07757 s.
Peak resident memory used = 132 Mbytes.

         MDL montecarlo: iteration = 1   ( 2.00% ) complete.

*****************************************************************
Transient Analysis `transient1_transient1': time = (0 s -> 40 ns)
*****************************************************************

Opening the PSFXL file teste2/inverter.raw/transient1_transient1.tran.tran ...
DC simulation time: CPU = 316 us, elapsed = 317.097 us.
Important parameter values:
    start = 0 s
    outputstart = 0 s
    stop = 40 ns
    step = 40 ps
    maxstep = 800 ps
    ic = all
    useprevic = no
    skipdc = no
    reltol = 1e-03
    abstol(V) = 1 uV
    abstol(I) = 1 pA
    temp = -25 C
    tnom = 27 C
    tempeffects = all
    errpreset = moderate
    method = trap
    lteratio = 3.5
    relref = sigglobal
    cmin = 0 F
    gmin = 1 pS


Output and IC/nodeset summary:
                 probe  12      
                 save   2       (current)
                 save   3       (voltage)

.................9.................8.................7.................6.................5.................4.................3.................2.................1.................0
Number of accepted tran steps =             132

Maximum value achieved for any signal of each quantity: 
V: V(Z) = 710 mV
I: I(VX:p) = 41.31 uA
If your circuit contains signals of the same quantity that are vastly different in size (such as high voltage circuitry combined with low voltage control circuitry), you should consider specifying global option `bin_relref=yes'.

~~~~~~~~~~~~~~~~~~~~~~~~~~~~~~~~~
Post-Transient Simulation Summary
~~~~~~~~~~~~~~~~~~~~~~~~~~~~~~~~~
   -   To further speed up simulation, consider
          add ++aps on command line
~~~~~~~~~~~~~~~~~~~~~~~~~~~~~~~~~


During simulation, the CPU load for active processors is :
         0 (64.5 %)      1 (58.9 %)      2 (63.1 %)      3 (61.5 %)
        Total: 248.0%
Initial condition solution time: CPU = 389 us, elapsed = 391.96 us.
Intrinsic tran analysis time:    CPU = 21.395 ms, elapsed = 59.3288 ms.
Total time required for tran analysis `transient1_transient1': CPU = 23.912 ms, elapsed = 61.8589 ms.
Time accumulated: CPU = 293.727 ms, elapsed = 1.18581 s.
Peak resident memory used = 132 Mbytes.

         MDL montecarlo: iteration = 2   ( 4.00% ) complete.

*****************************************************************
Transient Analysis `transient1_transient1': time = (0 s -> 40 ns)
*****************************************************************

Opening the PSFXL file teste2/inverter.raw/transient1_transient1.tran.tran ...
DC simulation time: CPU = 395 us, elapsed = 404.835 us.
Important parameter values:
    start = 0 s
    outputstart = 0 s
    stop = 40 ns
    step = 40 ps
    maxstep = 800 ps
    ic = all
    useprevic = no
    skipdc = no
    reltol = 1e-03
    abstol(V) = 1 uV
    abstol(I) = 1 pA
    temp = -25 C
    tnom = 27 C
    tempeffects = all
    errpreset = moderate
    method = trap
    lteratio = 3.5
    relref = sigglobal
    cmin = 0 F
    gmin = 1 pS


Output and IC/nodeset summary:
                 probe  12      
                 save   2       (current)
                 save   3       (voltage)

.................9.................8.................7.................6.................5.................4.................3.................2.................1.................0
Number of accepted tran steps =             117

Maximum value achieved for any signal of each quantity: 
V: V(Z) = 707.6 mV
I: I(VX:p) = 39.58 uA
If your circuit contains signals of the same quantity that are vastly different in size (such as high voltage circuitry combined with low voltage control circuitry), you should consider specifying global option `bin_relref=yes'.

~~~~~~~~~~~~~~~~~~~~~~~~~~~~~~~~~
Post-Transient Simulation Summary
~~~~~~~~~~~~~~~~~~~~~~~~~~~~~~~~~
   -   To further speed up simulation, consider
          add ++aps on command line
~~~~~~~~~~~~~~~~~~~~~~~~~~~~~~~~~


During simulation, the CPU load for active processors is :
         0 (65.5 %)      1 (62.0 %)      2 (64.8 %)      3 (62.5 %)
        Total: 254.8%
Initial condition solution time: CPU = 541 us, elapsed = 550.985 us.
Intrinsic tran analysis time:    CPU = 21.191 ms, elapsed = 58.3689 ms.
Total time required for tran analysis `transient1_transient1': CPU = 24.335 ms, elapsed = 61.5408 ms.
Time accumulated: CPU = 321.232 ms, elapsed = 1.28598 s.
Peak resident memory used = 132 Mbytes.

         MDL montecarlo: iteration = 3   ( 6.00% ) complete.

*****************************************************************
Transient Analysis `transient1_transient1': time = (0 s -> 40 ns)
*****************************************************************

Opening the PSFXL file teste2/inverter.raw/transient1_transient1.tran.tran ...
DC simulation time: CPU = 314 us, elapsed = 315.905 us.
Important parameter values:
    start = 0 s
    outputstart = 0 s
    stop = 40 ns
    step = 40 ps
    maxstep = 800 ps
    ic = all
    useprevic = no
    skipdc = no
    reltol = 1e-03
    abstol(V) = 1 uV
    abstol(I) = 1 pA
    temp = -25 C
    tnom = 27 C
    tempeffects = all
    errpreset = moderate
    method = trap
    lteratio = 3.5
    relref = sigglobal
    cmin = 0 F
    gmin = 1 pS


Output and IC/nodeset summary:
                 probe  12      
                 save   2       (current)
                 save   3       (voltage)

.................9.................8.................7.................6.................5.................4.................3.................2.................1.................0
Number of accepted tran steps =             119

Maximum value achieved for any signal of each quantity: 
V: V(Z) = 711.5 mV
I: I(VX:p) = 40.03 uA
If your circuit contains signals of the same quantity that are vastly different in size (such as high voltage circuitry combined with low voltage control circuitry), you should consider specifying global option `bin_relref=yes'.

~~~~~~~~~~~~~~~~~~~~~~~~~~~~~~~~~
Post-Transient Simulation Summary
~~~~~~~~~~~~~~~~~~~~~~~~~~~~~~~~~
   -   To further speed up simulation, consider
          add ++aps on command line
~~~~~~~~~~~~~~~~~~~~~~~~~~~~~~~~~


During simulation, the CPU load for active processors is :
         0 (67.7 %)      1 (64.4 %)      2 (67.7 %)      3 (65.4 %)
        Total: 265.2%
Initial condition solution time: CPU = 384 us, elapsed = 386.953 us.
Intrinsic tran analysis time:    CPU = 19.248 ms, elapsed = 79.767 ms.
Total time required for tran analysis `transient1_transient1': CPU = 21.845 ms, elapsed = 82.3739 ms.
Time accumulated: CPU = 346.218 ms, elapsed = 1.41253 s.
Peak resident memory used = 132 Mbytes.

         MDL montecarlo: iteration = 4   ( 8.00% ) complete.

*****************************************************************
Transient Analysis `transient1_transient1': time = (0 s -> 40 ns)
*****************************************************************

Opening the PSFXL file teste2/inverter.raw/transient1_transient1.tran.tran ...
DC simulation time: CPU = 347 us, elapsed = 349.998 us.
Important parameter values:
    start = 0 s
    outputstart = 0 s
    stop = 40 ns
    step = 40 ps
    maxstep = 800 ps
    ic = all
    useprevic = no
    skipdc = no
    reltol = 1e-03
    abstol(V) = 1 uV
    abstol(I) = 1 pA
    temp = -25 C
    tnom = 27 C
    tempeffects = all
    errpreset = moderate
    method = trap
    lteratio = 3.5
    relref = sigglobal
    cmin = 0 F
    gmin = 1 pS


Output and IC/nodeset summary:
                 probe  12      
                 save   2       (current)
                 save   3       (voltage)

.................9.................8.................7.................6.................5.................4.................3.................2.................1.................0
Number of accepted tran steps =             132

Maximum value achieved for any signal of each quantity: 
V: V(Z) = 710.9 mV
I: I(VX:p) = 32.04 uA
If your circuit contains signals of the same quantity that are vastly different in size (such as high voltage circuitry combined with low voltage control circuitry), you should consider specifying global option `bin_relref=yes'.

~~~~~~~~~~~~~~~~~~~~~~~~~~~~~~~~~
Post-Transient Simulation Summary
~~~~~~~~~~~~~~~~~~~~~~~~~~~~~~~~~
   -   To further speed up simulation, consider
          add ++aps on command line
~~~~~~~~~~~~~~~~~~~~~~~~~~~~~~~~~


During simulation, the CPU load for active processors is :
         0 (70.5 %)      1 (66.4 %)      2 (69.9 %)      3 (67.6 %)
        Total: 274.4%
Initial condition solution time: CPU = 450 us, elapsed = 450.85 us.
Intrinsic tran analysis time:    CPU = 20.158 ms, elapsed = 68.2871 ms.
Total time required for tran analysis `transient1_transient1': CPU = 22.894 ms, elapsed = 71.0349 ms.
Time accumulated: CPU = 372.099 ms, elapsed = 1.53752 s.
Peak resident memory used = 132 Mbytes.

         MDL montecarlo: iteration = 5   ( 10.00% ) complete.

*****************************************************************
Transient Analysis `transient1_transient1': time = (0 s -> 40 ns)
*****************************************************************

Opening the PSFXL file teste2/inverter.raw/transient1_transient1.tran.tran ...
DC simulation time: CPU = 296 us, elapsed = 303.984 us.
Important parameter values:
    start = 0 s
    outputstart = 0 s
    stop = 40 ns
    step = 40 ps
    maxstep = 800 ps
    ic = all
    useprevic = no
    skipdc = no
    reltol = 1e-03
    abstol(V) = 1 uV
    abstol(I) = 1 pA
    temp = -25 C
    tnom = 27 C
    tempeffects = all
    errpreset = moderate
    method = trap
    lteratio = 3.5
    relref = sigglobal
    cmin = 0 F
    gmin = 1 pS


Output and IC/nodeset summary:
                 probe  12      
                 save   2       (current)
                 save   3       (voltage)

.................9.................8.................7.................6.................5.................4.................3.................2.................1.................0
Number of accepted tran steps =             117

Maximum value achieved for any signal of each quantity: 
V: V(Z) = 706.9 mV
I: I(VX:p) = 45.92 uA
If your circuit contains signals of the same quantity that are vastly different in size (such as high voltage circuitry combined with low voltage control circuitry), you should consider specifying global option `bin_relref=yes'.

~~~~~~~~~~~~~~~~~~~~~~~~~~~~~~~~~
Post-Transient Simulation Summary
~~~~~~~~~~~~~~~~~~~~~~~~~~~~~~~~~
   -   To further speed up simulation, consider
          add ++aps on command line
~~~~~~~~~~~~~~~~~~~~~~~~~~~~~~~~~


During simulation, the CPU load for active processors is :
         0 (71.3 %)      1 (68.2 %)      2 (71.3 %)      3 (68.4 %)
        Total: 279.2%
Initial condition solution time: CPU = 372 us, elapsed = 380.993 us.
Intrinsic tran analysis time:    CPU = 18.081 ms, elapsed = 56.448 ms.
Total time required for tran analysis `transient1_transient1': CPU = 20.446 ms, elapsed = 58.924 ms.
Time accumulated: CPU = 395.346 ms, elapsed = 1.65024 s.
Peak resident memory used = 132 Mbytes.

         MDL montecarlo: iteration = 6   ( 12.00% ) complete.

*****************************************************************
Transient Analysis `transient1_transient1': time = (0 s -> 40 ns)
*****************************************************************

Opening the PSFXL file teste2/inverter.raw/transient1_transient1.tran.tran ...
DC simulation time: CPU = 293 us, elapsed = 294.924 us.
Important parameter values:
    start = 0 s
    outputstart = 0 s
    stop = 40 ns
    step = 40 ps
    maxstep = 800 ps
    ic = all
    useprevic = no
    skipdc = no
    reltol = 1e-03
    abstol(V) = 1 uV
    abstol(I) = 1 pA
    temp = -25 C
    tnom = 27 C
    tempeffects = all
    errpreset = moderate
    method = trap
    lteratio = 3.5
    relref = sigglobal
    cmin = 0 F
    gmin = 1 pS


Output and IC/nodeset summary:
                 probe  12      
                 save   2       (current)
                 save   3       (voltage)

.................9.................8.................7.................6.................5.................4.................3.................2.................1.................0
Number of accepted tran steps =             127

Maximum value achieved for any signal of each quantity: 
V: V(Z) = 711.6 mV
I: I(VX:p) = 37.73 uA
If your circuit contains signals of the same quantity that are vastly different in size (such as high voltage circuitry combined with low voltage control circuitry), you should consider specifying global option `bin_relref=yes'.

~~~~~~~~~~~~~~~~~~~~~~~~~~~~~~~~~
Post-Transient Simulation Summary
~~~~~~~~~~~~~~~~~~~~~~~~~~~~~~~~~
   -   To further speed up simulation, consider
          add ++aps on command line
~~~~~~~~~~~~~~~~~~~~~~~~~~~~~~~~~


During simulation, the CPU load for active processors is :
         0 (72.5 %)      1 (69.6 %)      2 (72.5 %)      3 (69.3 %)
        Total: 283.8%
Initial condition solution time: CPU = 365 us, elapsed = 366.926 us.
Intrinsic tran analysis time:    CPU = 22.036 ms, elapsed = 55.6419 ms.
Total time required for tran analysis `transient1_transient1': CPU = 24.546 ms, elapsed = 58.1629 ms.
Time accumulated: CPU = 423.02 ms, elapsed = 1.75418 s.
Peak resident memory used = 132 Mbytes.

         MDL montecarlo: iteration = 7   ( 14.00% ) complete.

*****************************************************************
Transient Analysis `transient1_transient1': time = (0 s -> 40 ns)
*****************************************************************

Opening the PSFXL file teste2/inverter.raw/transient1_transient1.tran.tran ...
DC simulation time: CPU = 329 us, elapsed = 332.117 us.
Important parameter values:
    start = 0 s
    outputstart = 0 s
    stop = 40 ns
    step = 40 ps
    maxstep = 800 ps
    ic = all
    useprevic = no
    skipdc = no
    reltol = 1e-03
    abstol(V) = 1 uV
    abstol(I) = 1 pA
    temp = -25 C
    tnom = 27 C
    tempeffects = all
    errpreset = moderate
    method = trap
    lteratio = 3.5
    relref = sigglobal
    cmin = 0 F
    gmin = 1 pS


Output and IC/nodeset summary:
                 probe  12      
                 save   2       (current)
                 save   3       (voltage)

.................9.................8.................7.................6.................5.................4.................3.................2.................1.................0
Number of accepted tran steps =             126

Maximum value achieved for any signal of each quantity: 
V: V(Z) = 708.6 mV
I: I(VX:p) = 39.05 uA
If your circuit contains signals of the same quantity that are vastly different in size (such as high voltage circuitry combined with low voltage control circuitry), you should consider specifying global option `bin_relref=yes'.

~~~~~~~~~~~~~~~~~~~~~~~~~~~~~~~~~
Post-Transient Simulation Summary
~~~~~~~~~~~~~~~~~~~~~~~~~~~~~~~~~
   -   To further speed up simulation, consider
          add ++aps on command line
~~~~~~~~~~~~~~~~~~~~~~~~~~~~~~~~~


During simulation, the CPU load for active processors is :
         0 (73.7 %)      1 (69.8 %)      2 (73.0 %)      3 (69.7 %)
        Total: 286.3%
Initial condition solution time: CPU = 411 us, elapsed = 412.941 us.
Intrinsic tran analysis time:    CPU = 20.619 ms, elapsed = 66.2441 ms.
Total time required for tran analysis `transient1_transient1': CPU = 23.301 ms, elapsed = 68.943 ms.
Time accumulated: CPU = 450.394 ms, elapsed = 1.86154 s.
Peak resident memory used = 132 Mbytes.

         MDL montecarlo: iteration = 8   ( 16.00% ) complete.

*****************************************************************
Transient Analysis `transient1_transient1': time = (0 s -> 40 ns)
*****************************************************************

Opening the PSFXL file teste2/inverter.raw/transient1_transient1.tran.tran ...
DC simulation time: CPU = 368 us, elapsed = 372.171 us.
Important parameter values:
    start = 0 s
    outputstart = 0 s
    stop = 40 ns
    step = 40 ps
    maxstep = 800 ps
    ic = all
    useprevic = no
    skipdc = no
    reltol = 1e-03
    abstol(V) = 1 uV
    abstol(I) = 1 pA
    temp = -25 C
    tnom = 27 C
    tempeffects = all
    errpreset = moderate
    method = trap
    lteratio = 3.5
    relref = sigglobal
    cmin = 0 F
    gmin = 1 pS


Output and IC/nodeset summary:
                 probe  12      
                 save   2       (current)
                 save   3       (voltage)

.................9.................8.................7.................6.................5.................4.................3.................2.................1.................0
Number of accepted tran steps =             118

Maximum value achieved for any signal of each quantity: 
V: V(Z) = 712.3 mV
I: I(VX:p) = 39.19 uA
If your circuit contains signals of the same quantity that are vastly different in size (such as high voltage circuitry combined with low voltage control circuitry), you should consider specifying global option `bin_relref=yes'.

~~~~~~~~~~~~~~~~~~~~~~~~~~~~~~~~~
Post-Transient Simulation Summary
~~~~~~~~~~~~~~~~~~~~~~~~~~~~~~~~~
   -   To further speed up simulation, consider
          add ++aps on command line
~~~~~~~~~~~~~~~~~~~~~~~~~~~~~~~~~


During simulation, the CPU load for active processors is :
         0 (75.0 %)      1 (70.7 %)      2 (73.4 %)      3 (70.7 %)
        Total: 289.9%
Initial condition solution time: CPU = 467 us, elapsed = 469.923 us.
Intrinsic tran analysis time:    CPU = 21.934 ms, elapsed = 58.887 ms.
Total time required for tran analysis `transient1_transient1': CPU = 24.759 ms, elapsed = 61.754 ms.
Time accumulated: CPU = 478.484 ms, elapsed = 1.96268 s.
Peak resident memory used = 132 Mbytes.

         MDL montecarlo: iteration = 9   ( 18.00% ) complete.

*****************************************************************
Transient Analysis `transient1_transient1': time = (0 s -> 40 ns)
*****************************************************************

Opening the PSFXL file teste2/inverter.raw/transient1_transient1.tran.tran ...
DC simulation time: CPU = 264 us, elapsed = 271.797 us.
Important parameter values:
    start = 0 s
    outputstart = 0 s
    stop = 40 ns
    step = 40 ps
    maxstep = 800 ps
    ic = all
    useprevic = no
    skipdc = no
    reltol = 1e-03
    abstol(V) = 1 uV
    abstol(I) = 1 pA
    temp = -25 C
    tnom = 27 C
    tempeffects = all
    errpreset = moderate
    method = trap
    lteratio = 3.5
    relref = sigglobal
    cmin = 0 F
    gmin = 1 pS


Output and IC/nodeset summary:
                 probe  12      
                 save   2       (current)
                 save   3       (voltage)

.................9.................8.................7.................6.................5.................4.................3.................2.................1.................0
Number of accepted tran steps =             124

Maximum value achieved for any signal of each quantity: 
V: V(Z) = 706.9 mV
I: I(VX:p) = 31.47 uA
If your circuit contains signals of the same quantity that are vastly different in size (such as high voltage circuitry combined with low voltage control circuitry), you should consider specifying global option `bin_relref=yes'.

~~~~~~~~~~~~~~~~~~~~~~~~~~~~~~~~~
Post-Transient Simulation Summary
~~~~~~~~~~~~~~~~~~~~~~~~~~~~~~~~~
   -   To further speed up simulation, consider
          add ++aps on command line
~~~~~~~~~~~~~~~~~~~~~~~~~~~~~~~~~


During simulation, the CPU load for active processors is :
         0 (75.3 %)      1 (71.5 %)      2 (73.7 %)      3 (71.7 %)
        Total: 292.2%
Initial condition solution time: CPU = 331 us, elapsed = 339.985 us.
Intrinsic tran analysis time:    CPU = 19.286 ms, elapsed = 57.6692 ms.
Total time required for tran analysis `transient1_transient1': CPU = 21.381 ms, elapsed = 59.7811 ms.
Time accumulated: CPU = 503.101 ms, elapsed = 2.06856 s.
Peak resident memory used = 132 Mbytes.

         MDL montecarlo: iteration = 10   ( 20.00% ) complete.

*****************************************************************
Transient Analysis `transient1_transient1': time = (0 s -> 40 ns)
*****************************************************************

Opening the PSFXL file teste2/inverter.raw/transient1_transient1.tran.tran ...
DC simulation time: CPU = 292 us, elapsed = 292.778 us.
Important parameter values:
    start = 0 s
    outputstart = 0 s
    stop = 40 ns
    step = 40 ps
    maxstep = 800 ps
    ic = all
    useprevic = no
    skipdc = no
    reltol = 1e-03
    abstol(V) = 1 uV
    abstol(I) = 1 pA
    temp = -25 C
    tnom = 27 C
    tempeffects = all
    errpreset = moderate
    method = trap
    lteratio = 3.5
    relref = sigglobal
    cmin = 0 F
    gmin = 1 pS


Output and IC/nodeset summary:
                 probe  12      
                 save   2       (current)
                 save   3       (voltage)

.................9.................8.................7.................6.................5.................4.................3.................2.................1.................0
Number of accepted tran steps =             120

Maximum value achieved for any signal of each quantity: 
V: V(Z) = 711.8 mV
I: I(VX:p) = 41.89 uA
If your circuit contains signals of the same quantity that are vastly different in size (such as high voltage circuitry combined with low voltage control circuitry), you should consider specifying global option `bin_relref=yes'.

~~~~~~~~~~~~~~~~~~~~~~~~~~~~~~~~~
Post-Transient Simulation Summary
~~~~~~~~~~~~~~~~~~~~~~~~~~~~~~~~~
   -   To further speed up simulation, consider
          add ++aps on command line
~~~~~~~~~~~~~~~~~~~~~~~~~~~~~~~~~


During simulation, the CPU load for active processors is :
         0 (75.5 %)      1 (72.6 %)      2 (74.9 %)      3 (72.5 %)
        Total: 295.5%
Initial condition solution time: CPU = 359 us, elapsed = 361.919 us.
Intrinsic tran analysis time:    CPU = 21.512 ms, elapsed = 83.8151 ms.
Total time required for tran analysis `transient1_transient1': CPU = 24.196 ms, elapsed = 86.514 ms.
Time accumulated: CPU = 530.336 ms, elapsed = 2.19568 s.
Peak resident memory used = 132 Mbytes.

         MDL montecarlo: iteration = 11   ( 22.00% ) complete.

*****************************************************************
Transient Analysis `transient1_transient1': time = (0 s -> 40 ns)
*****************************************************************

Opening the PSFXL file teste2/inverter.raw/transient1_transient1.tran.tran ...
DC simulation time: CPU = 363 us, elapsed = 370.979 us.
Important parameter values:
    start = 0 s
    outputstart = 0 s
    stop = 40 ns
    step = 40 ps
    maxstep = 800 ps
    ic = all
    useprevic = no
    skipdc = no
    reltol = 1e-03
    abstol(V) = 1 uV
    abstol(I) = 1 pA
    temp = -25 C
    tnom = 27 C
    tempeffects = all
    errpreset = moderate
    method = trap
    lteratio = 3.5
    relref = sigglobal
    cmin = 0 F
    gmin = 1 pS


Output and IC/nodeset summary:
                 probe  12      
                 save   2       (current)
                 save   3       (voltage)

.................9.................8.................7.................6.................5.................4.................3.................2.................1.................0
Number of accepted tran steps =             133

Maximum value achieved for any signal of each quantity: 
V: V(Z) = 707.4 mV
I: I(VX:p) = 43.65 uA
If your circuit contains signals of the same quantity that are vastly different in size (such as high voltage circuitry combined with low voltage control circuitry), you should consider specifying global option `bin_relref=yes'.

~~~~~~~~~~~~~~~~~~~~~~~~~~~~~~~~~
Post-Transient Simulation Summary
~~~~~~~~~~~~~~~~~~~~~~~~~~~~~~~~~
   -   To further speed up simulation, consider
          add ++aps on command line
~~~~~~~~~~~~~~~~~~~~~~~~~~~~~~~~~


During simulation, the CPU load for active processors is :
         0 (75.7 %)      1 (73.2 %)      2 (75.7 %)      3 (73.5 %)
        Total: 298.1%
Initial condition solution time: CPU = 468 us, elapsed = 478.029 us.
Intrinsic tran analysis time:    CPU = 22.355 ms, elapsed = 68.131 ms.
Total time required for tran analysis `transient1_transient1': CPU = 25.111 ms, elapsed = 70.9071 ms.
Time accumulated: CPU = 558.603 ms, elapsed = 2.31327 s.
Peak resident memory used = 132 Mbytes.

         MDL montecarlo: iteration = 12   ( 24.00% ) complete.

*****************************************************************
Transient Analysis `transient1_transient1': time = (0 s -> 40 ns)
*****************************************************************

Opening the PSFXL file teste2/inverter.raw/transient1_transient1.tran.tran ...
DC simulation time: CPU = 290 us, elapsed = 291.109 us.
Important parameter values:
    start = 0 s
    outputstart = 0 s
    stop = 40 ns
    step = 40 ps
    maxstep = 800 ps
    ic = all
    useprevic = no
    skipdc = no
    reltol = 1e-03
    abstol(V) = 1 uV
    abstol(I) = 1 pA
    temp = -25 C
    tnom = 27 C
    tempeffects = all
    errpreset = moderate
    method = trap
    lteratio = 3.5
    relref = sigglobal
    cmin = 0 F
    gmin = 1 pS


Output and IC/nodeset summary:
                 probe  12      
                 save   2       (current)
                 save   3       (voltage)

.................9.................8.................7.................6.................5.................4.................3.................2.................1.................0
Number of accepted tran steps =             124

Maximum value achieved for any signal of each quantity: 
V: V(Z) = 711.6 mV
I: I(VX:p) = 26.93 uA
If your circuit contains signals of the same quantity that are vastly different in size (such as high voltage circuitry combined with low voltage control circuitry), you should consider specifying global option `bin_relref=yes'.

~~~~~~~~~~~~~~~~~~~~~~~~~~~~~~~~~
Post-Transient Simulation Summary
~~~~~~~~~~~~~~~~~~~~~~~~~~~~~~~~~
   -   To further speed up simulation, consider
          add ++aps on command line
~~~~~~~~~~~~~~~~~~~~~~~~~~~~~~~~~


During simulation, the CPU load for active processors is :
         0 (76.4 %)      1 (73.1 %)      2 (76.3 %)      3 (73.4 %)
        Total: 299.2%
Initial condition solution time: CPU = 358 us, elapsed = 360.966 us.
Intrinsic tran analysis time:    CPU = 20.713 ms, elapsed = 59.773 ms.
Total time required for tran analysis `transient1_transient1': CPU = 23.164 ms, elapsed = 62.233 ms.
Time accumulated: CPU = 584.839 ms, elapsed = 2.41454 s.
Peak resident memory used = 132 Mbytes.

         MDL montecarlo: iteration = 13   ( 26.00% ) complete.

*****************************************************************
Transient Analysis `transient1_transient1': time = (0 s -> 40 ns)
*****************************************************************

Opening the PSFXL file teste2/inverter.raw/transient1_transient1.tran.tran ...
DC simulation time: CPU = 294 us, elapsed = 294.924 us.
Important parameter values:
    start = 0 s
    outputstart = 0 s
    stop = 40 ns
    step = 40 ps
    maxstep = 800 ps
    ic = all
    useprevic = no
    skipdc = no
    reltol = 1e-03
    abstol(V) = 1 uV
    abstol(I) = 1 pA
    temp = -25 C
    tnom = 27 C
    tempeffects = all
    errpreset = moderate
    method = trap
    lteratio = 3.5
    relref = sigglobal
    cmin = 0 F
    gmin = 1 pS


Output and IC/nodeset summary:
                 probe  12      
                 save   2       (current)
                 save   3       (voltage)

.................9.................8.................7.................6.................5.................4.................3.................2.................1.................0
Number of accepted tran steps =             119

Maximum value achieved for any signal of each quantity: 
V: V(Z) = 706.8 mV
I: I(VX:p) = 42.09 uA
If your circuit contains signals of the same quantity that are vastly different in size (such as high voltage circuitry combined with low voltage control circuitry), you should consider specifying global option `bin_relref=yes'.

~~~~~~~~~~~~~~~~~~~~~~~~~~~~~~~~~
Post-Transient Simulation Summary
~~~~~~~~~~~~~~~~~~~~~~~~~~~~~~~~~
   -   To further speed up simulation, consider
          add ++aps on command line
~~~~~~~~~~~~~~~~~~~~~~~~~~~~~~~~~


During simulation, the CPU load for active processors is :
         0 (77.2 %)      1 (73.3 %)      2 (76.5 %)      3 (73.8 %)
        Total: 300.8%
Initial condition solution time: CPU = 349 us, elapsed = 349.998 us.
Intrinsic tran analysis time:    CPU = 20.492 ms, elapsed = 83.3349 ms.
Total time required for tran analysis `transient1_transient1': CPU = 22.899 ms, elapsed = 85.7601 ms.
Time accumulated: CPU = 611.008 ms, elapsed = 2.54516 s.
Peak resident memory used = 132 Mbytes.

         MDL montecarlo: iteration = 14   ( 28.00% ) complete.

*****************************************************************
Transient Analysis `transient1_transient1': time = (0 s -> 40 ns)
*****************************************************************

Opening the PSFXL file teste2/inverter.raw/transient1_transient1.tran.tran ...
DC simulation time: CPU = 333 us, elapsed = 334.024 us.
Important parameter values:
    start = 0 s
    outputstart = 0 s
    stop = 40 ns
    step = 40 ps
    maxstep = 800 ps
    ic = all
    useprevic = no
    skipdc = no
    reltol = 1e-03
    abstol(V) = 1 uV
    abstol(I) = 1 pA
    temp = -25 C
    tnom = 27 C
    tempeffects = all
    errpreset = moderate
    method = trap
    lteratio = 3.5
    relref = sigglobal
    cmin = 0 F
    gmin = 1 pS


Output and IC/nodeset summary:
                 probe  12      
                 save   2       (current)
                 save   3       (voltage)

.................9.................8.................7.................6.................5.................4.................3.................2.................1.................0
Number of accepted tran steps =             131

Maximum value achieved for any signal of each quantity: 
V: V(Z) = 710.2 mV
I: I(VX:p) = 27.17 uA
If your circuit contains signals of the same quantity that are vastly different in size (such as high voltage circuitry combined with low voltage control circuitry), you should consider specifying global option `bin_relref=yes'.

~~~~~~~~~~~~~~~~~~~~~~~~~~~~~~~~~
Post-Transient Simulation Summary
~~~~~~~~~~~~~~~~~~~~~~~~~~~~~~~~~
   -   To further speed up simulation, consider
          add ++aps on command line
~~~~~~~~~~~~~~~~~~~~~~~~~~~~~~~~~


During simulation, the CPU load for active processors is :
         0 (78.1 %)      1 (73.9 %)      2 (76.7 %)      3 (73.7 %)
        Total: 302.5%
Initial condition solution time: CPU = 396 us, elapsed = 397.921 us.
Intrinsic tran analysis time:    CPU = 19.789 ms, elapsed = 62.254 ms.
Total time required for tran analysis `transient1_transient1': CPU = 22.675 ms, elapsed = 65.177 ms.
Time accumulated: CPU = 636.77 ms, elapsed = 2.64966 s.
Peak resident memory used = 132 Mbytes.

         MDL montecarlo: iteration = 15   ( 30.00% ) complete.

*****************************************************************
Transient Analysis `transient1_transient1': time = (0 s -> 40 ns)
*****************************************************************

Opening the PSFXL file teste2/inverter.raw/transient1_transient1.tran.tran ...
DC simulation time: CPU = 284 us, elapsed = 283.957 us.
Important parameter values:
    start = 0 s
    outputstart = 0 s
    stop = 40 ns
    step = 40 ps
    maxstep = 800 ps
    ic = all
    useprevic = no
    skipdc = no
    reltol = 1e-03
    abstol(V) = 1 uV
    abstol(I) = 1 pA
    temp = -25 C
    tnom = 27 C
    tempeffects = all
    errpreset = moderate
    method = trap
    lteratio = 3.5
    relref = sigglobal
    cmin = 0 F
    gmin = 1 pS


Output and IC/nodeset summary:
                 probe  12      
                 save   2       (current)
                 save   3       (voltage)

.................9.................8.................7.................6.................5.................4.................3.................2.................1.................0
Number of accepted tran steps =             132

Maximum value achieved for any signal of each quantity: 
V: V(Z) = 707.7 mV
I: I(VX:p) = 27.56 uA
If your circuit contains signals of the same quantity that are vastly different in size (such as high voltage circuitry combined with low voltage control circuitry), you should consider specifying global option `bin_relref=yes'.

~~~~~~~~~~~~~~~~~~~~~~~~~~~~~~~~~
Post-Transient Simulation Summary
~~~~~~~~~~~~~~~~~~~~~~~~~~~~~~~~~
   -   To further speed up simulation, consider
          add ++aps on command line
~~~~~~~~~~~~~~~~~~~~~~~~~~~~~~~~~


During simulation, the CPU load for active processors is :
         0 (78.7 %)      1 (74.5 %)      2 (77.2 %)      3 (74.0 %)
        Total: 304.3%
Initial condition solution time: CPU = 344 us, elapsed = 344.992 us.
Intrinsic tran analysis time:    CPU = 19.303 ms, elapsed = 57.8051 ms.
Total time required for tran analysis `transient1_transient1': CPU = 21.732 ms, elapsed = 60.2419 ms.
Time accumulated: CPU = 661.501 ms, elapsed = 2.75312 s.
Peak resident memory used = 132 Mbytes.

         MDL montecarlo: iteration = 16   ( 32.00% ) complete.

*****************************************************************
Transient Analysis `transient1_transient1': time = (0 s -> 40 ns)
*****************************************************************

Opening the PSFXL file teste2/inverter.raw/transient1_transient1.tran.tran ...
DC simulation time: CPU = 287 us, elapsed = 288.01 us.
Important parameter values:
    start = 0 s
    outputstart = 0 s
    stop = 40 ns
    step = 40 ps
    maxstep = 800 ps
    ic = all
    useprevic = no
    skipdc = no
    reltol = 1e-03
    abstol(V) = 1 uV
    abstol(I) = 1 pA
    temp = -25 C
    tnom = 27 C
    tempeffects = all
    errpreset = moderate
    method = trap
    lteratio = 3.5
    relref = sigglobal
    cmin = 0 F
    gmin = 1 pS


Output and IC/nodeset summary:
                 probe  12      
                 save   2       (current)
                 save   3       (voltage)

.................9.................8.................7.................6.................5.................4.................3.................2.................1.................0
Number of accepted tran steps =             127

Maximum value achieved for any signal of each quantity: 
V: V(Z) = 710.8 mV
I: I(VX:p) = 45.2 uA
If your circuit contains signals of the same quantity that are vastly different in size (such as high voltage circuitry combined with low voltage control circuitry), you should consider specifying global option `bin_relref=yes'.

~~~~~~~~~~~~~~~~~~~~~~~~~~~~~~~~~
Post-Transient Simulation Summary
~~~~~~~~~~~~~~~~~~~~~~~~~~~~~~~~~
   -   To further speed up simulation, consider
          add ++aps on command line
~~~~~~~~~~~~~~~~~~~~~~~~~~~~~~~~~


During simulation, the CPU load for active processors is :
         0 (78.7 %)      1 (74.8 %)      2 (77.4 %)      3 (73.9 %)
        Total: 304.9%
Initial condition solution time: CPU = 359 us, elapsed = 360.966 us.
Intrinsic tran analysis time:    CPU = 20.061 ms, elapsed = 56.459 ms.
Total time required for tran analysis `transient1_transient1': CPU = 22.571 ms, elapsed = 58.979 ms.
Time accumulated: CPU = 687.422 ms, elapsed = 2.86212 s.
Peak resident memory used = 132 Mbytes.

         MDL montecarlo: iteration = 17   ( 34.00% ) complete.

*****************************************************************
Transient Analysis `transient1_transient1': time = (0 s -> 40 ns)
*****************************************************************

Opening the PSFXL file teste2/inverter.raw/transient1_transient1.tran.tran ...
DC simulation time: CPU = 322 us, elapsed = 329.018 us.
Important parameter values:
    start = 0 s
    outputstart = 0 s
    stop = 40 ns
    step = 40 ps
    maxstep = 800 ps
    ic = all
    useprevic = no
    skipdc = no
    reltol = 1e-03
    abstol(V) = 1 uV
    abstol(I) = 1 pA
    temp = -25 C
    tnom = 27 C
    tempeffects = all
    errpreset = moderate
    method = trap
    lteratio = 3.5
    relref = sigglobal
    cmin = 0 F
    gmin = 1 pS


Output and IC/nodeset summary:
                 probe  12      
                 save   2       (current)
                 save   3       (voltage)

.................9.................8.................7.................6.................5.................4.................3.................2.................1.................0
Number of accepted tran steps =             126

Maximum value achieved for any signal of each quantity: 
V: V(Z) = 706.7 mV
I: I(VX:p) = 45.63 uA
If your circuit contains signals of the same quantity that are vastly different in size (such as high voltage circuitry combined with low voltage control circuitry), you should consider specifying global option `bin_relref=yes'.

~~~~~~~~~~~~~~~~~~~~~~~~~~~~~~~~~
Post-Transient Simulation Summary
~~~~~~~~~~~~~~~~~~~~~~~~~~~~~~~~~
   -   To further speed up simulation, consider
          add ++aps on command line
~~~~~~~~~~~~~~~~~~~~~~~~~~~~~~~~~


During simulation, the CPU load for active processors is :
         0 (79.2 %)      1 (75.2 %)      2 (77.4 %)      3 (74.2 %)
        Total: 306.0%
Initial condition solution time: CPU = 413 us, elapsed = 420.809 us.
Intrinsic tran analysis time:    CPU = 22.19 ms, elapsed = 59.4471 ms.
Total time required for tran analysis `transient1_transient1': CPU = 24.85 ms, elapsed = 62.1281 ms.
Time accumulated: CPU = 715.675 ms, elapsed = 2.9724 s.
Peak resident memory used = 132 Mbytes.

         MDL montecarlo: iteration = 18   ( 36.00% ) complete.

*****************************************************************
Transient Analysis `transient1_transient1': time = (0 s -> 40 ns)
*****************************************************************

Opening the PSFXL file teste2/inverter.raw/transient1_transient1.tran.tran ...
DC simulation time: CPU = 376 us, elapsed = 387.192 us.
Important parameter values:
    start = 0 s
    outputstart = 0 s
    stop = 40 ns
    step = 40 ps
    maxstep = 800 ps
    ic = all
    useprevic = no
    skipdc = no
    reltol = 1e-03
    abstol(V) = 1 uV
    abstol(I) = 1 pA
    temp = -25 C
    tnom = 27 C
    tempeffects = all
    errpreset = moderate
    method = trap
    lteratio = 3.5
    relref = sigglobal
    cmin = 0 F
    gmin = 1 pS


Output and IC/nodeset summary:
                 probe  12      
                 save   2       (current)
                 save   3       (voltage)

.................9.................8.................7.................6.................5.................4.................3.................2.................1.................0
Number of accepted tran steps =             124

Maximum value achieved for any signal of each quantity: 
V: V(Z) = 706.8 mV
I: I(VX:p) = 40.9 uA
If your circuit contains signals of the same quantity that are vastly different in size (such as high voltage circuitry combined with low voltage control circuitry), you should consider specifying global option `bin_relref=yes'.

~~~~~~~~~~~~~~~~~~~~~~~~~~~~~~~~~
Post-Transient Simulation Summary
~~~~~~~~~~~~~~~~~~~~~~~~~~~~~~~~~
   -   To further speed up simulation, consider
          add ++aps on command line
~~~~~~~~~~~~~~~~~~~~~~~~~~~~~~~~~


During simulation, the CPU load for active processors is :
         0 (79.3 %)      1 (75.0 %)      2 (77.7 %)      3 (74.1 %)
        Total: 306.0%
Initial condition solution time: CPU = 487 us, elapsed = 498.056 us.
Intrinsic tran analysis time:    CPU = 20.056 ms, elapsed = 61.409 ms.
Total time required for tran analysis `transient1_transient1': CPU = 22.966 ms, elapsed = 64.342 ms.
Time accumulated: CPU = 742.142 ms, elapsed = 3.08304 s.
Peak resident memory used = 132 Mbytes.

         MDL montecarlo: iteration = 19   ( 38.00% ) complete.

*****************************************************************
Transient Analysis `transient1_transient1': time = (0 s -> 40 ns)
*****************************************************************

Opening the PSFXL file teste2/inverter.raw/transient1_transient1.tran.tran ...
DC simulation time: CPU = 286 us, elapsed = 293.016 us.
Important parameter values:
    start = 0 s
    outputstart = 0 s
    stop = 40 ns
    step = 40 ps
    maxstep = 800 ps
    ic = all
    useprevic = no
    skipdc = no
    reltol = 1e-03
    abstol(V) = 1 uV
    abstol(I) = 1 pA
    temp = -25 C
    tnom = 27 C
    tempeffects = all
    errpreset = moderate
    method = trap
    lteratio = 3.5
    relref = sigglobal
    cmin = 0 F
    gmin = 1 pS


Output and IC/nodeset summary:
                 probe  12      
                 save   2       (current)
                 save   3       (voltage)

.................9.................8.................7.................6.................5.................4.................3.................2.................1.................0
Number of accepted tran steps =             125

Maximum value achieved for any signal of each quantity: 
V: V(Z) = 707.2 mV
I: I(VX:p) = 36 uA
If your circuit contains signals of the same quantity that are vastly different in size (such as high voltage circuitry combined with low voltage control circuitry), you should consider specifying global option `bin_relref=yes'.

~~~~~~~~~~~~~~~~~~~~~~~~~~~~~~~~~
Post-Transient Simulation Summary
~~~~~~~~~~~~~~~~~~~~~~~~~~~~~~~~~
   -   To further speed up simulation, consider
          add ++aps on command line
~~~~~~~~~~~~~~~~~~~~~~~~~~~~~~~~~


During simulation, the CPU load for active processors is :
         0 (79.1 %)      1 (75.2 %)      2 (77.8 %)      3 (74.4 %)
        Total: 306.5%
Initial condition solution time: CPU = 359 us, elapsed = 367.88 us.
Intrinsic tran analysis time:    CPU = 19.534 ms, elapsed = 58.4619 ms.
Total time required for tran analysis `transient1_transient1': CPU = 21.981 ms, elapsed = 60.921 ms.
Time accumulated: CPU = 767.256 ms, elapsed = 3.19622 s.
Peak resident memory used = 132 Mbytes.

         MDL montecarlo: iteration = 20   ( 40.00% ) complete.

*****************************************************************
Transient Analysis `transient1_transient1': time = (0 s -> 40 ns)
*****************************************************************

Opening the PSFXL file teste2/inverter.raw/transient1_transient1.tran.tran ...
DC simulation time: CPU = 309 us, elapsed = 316.143 us.
Important parameter values:
    start = 0 s
    outputstart = 0 s
    stop = 40 ns
    step = 40 ps
    maxstep = 800 ps
    ic = all
    useprevic = no
    skipdc = no
    reltol = 1e-03
    abstol(V) = 1 uV
    abstol(I) = 1 pA
    temp = -25 C
    tnom = 27 C
    tempeffects = all
    errpreset = moderate
    method = trap
    lteratio = 3.5
    relref = sigglobal
    cmin = 0 F
    gmin = 1 pS


Output and IC/nodeset summary:
                 probe  12      
                 save   2       (current)
                 save   3       (voltage)

.................9.................8.................7.................6.................5.................4.................3.................2.................1.................0
Number of accepted tran steps =             126

Maximum value achieved for any signal of each quantity: 
V: V(Z) = 711.5 mV
I: I(VX:p) = 28.37 uA
If your circuit contains signals of the same quantity that are vastly different in size (such as high voltage circuitry combined with low voltage control circuitry), you should consider specifying global option `bin_relref=yes'.

~~~~~~~~~~~~~~~~~~~~~~~~~~~~~~~~~
Post-Transient Simulation Summary
~~~~~~~~~~~~~~~~~~~~~~~~~~~~~~~~~
   -   To further speed up simulation, consider
          add ++aps on command line
~~~~~~~~~~~~~~~~~~~~~~~~~~~~~~~~~


During simulation, the CPU load for active processors is :
         0 (79.9 %)      1 (75.6 %)      2 (78.7 %)      3 (75.1 %)
        Total: 309.3%
Initial condition solution time: CPU = 376 us, elapsed = 384.092 us.
Intrinsic tran analysis time:    CPU = 21.423 ms, elapsed = 73.0469 ms.
Total time required for tran analysis `transient1_transient1': CPU = 23.889 ms, elapsed = 75.6142 ms.
Time accumulated: CPU = 794.216 ms, elapsed = 3.32207 s.
Peak resident memory used = 132 Mbytes.

         MDL montecarlo: iteration = 21   ( 42.00% ) complete.

*****************************************************************
Transient Analysis `transient1_transient1': time = (0 s -> 40 ns)
*****************************************************************

Opening the PSFXL file teste2/inverter.raw/transient1_transient1.tran.tran ...
DC simulation time: CPU = 325 us, elapsed = 334.024 us.
Important parameter values:
    start = 0 s
    outputstart = 0 s
    stop = 40 ns
    step = 40 ps
    maxstep = 800 ps
    ic = all
    useprevic = no
    skipdc = no
    reltol = 1e-03
    abstol(V) = 1 uV
    abstol(I) = 1 pA
    temp = -25 C
    tnom = 27 C
    tempeffects = all
    errpreset = moderate
    method = trap
    lteratio = 3.5
    relref = sigglobal
    cmin = 0 F
    gmin = 1 pS


Output and IC/nodeset summary:
                 probe  12      
                 save   2       (current)
                 save   3       (voltage)

.................9.................8.................7.................6.................5.................4.................3.................2.................1.................0
Number of accepted tran steps =             133

Maximum value achieved for any signal of each quantity: 
V: V(Z) = 709.6 mV
I: I(VX:p) = 32.97 uA
If your circuit contains signals of the same quantity that are vastly different in size (such as high voltage circuitry combined with low voltage control circuitry), you should consider specifying global option `bin_relref=yes'.

~~~~~~~~~~~~~~~~~~~~~~~~~~~~~~~~~
Post-Transient Simulation Summary
~~~~~~~~~~~~~~~~~~~~~~~~~~~~~~~~~
   -   To further speed up simulation, consider
          add ++aps on command line
~~~~~~~~~~~~~~~~~~~~~~~~~~~~~~~~~


During simulation, the CPU load for active processors is :
         0 (79.9 %)      1 (76.3 %)      2 (78.8 %)      3 (75.5 %)
        Total: 310.5%
Initial condition solution time: CPU = 409 us, elapsed = 418.901 us.
Intrinsic tran analysis time:    CPU = 23.958 ms, elapsed = 61.553 ms.
Total time required for tran analysis `transient1_transient1': CPU = 26.6 ms, elapsed = 64.2209 ms.
Time accumulated: CPU = 823.871 ms, elapsed = 3.42478 s.
Peak resident memory used = 132 Mbytes.

         MDL montecarlo: iteration = 22   ( 44.00% ) complete.

*****************************************************************
Transient Analysis `transient1_transient1': time = (0 s -> 40 ns)
*****************************************************************

Opening the PSFXL file teste2/inverter.raw/transient1_transient1.tran.tran ...
DC simulation time: CPU = 317 us, elapsed = 319.004 us.
Important parameter values:
    start = 0 s
    outputstart = 0 s
    stop = 40 ns
    step = 40 ps
    maxstep = 800 ps
    ic = all
    useprevic = no
    skipdc = no
    reltol = 1e-03
    abstol(V) = 1 uV
    abstol(I) = 1 pA
    temp = -25 C
    tnom = 27 C
    tempeffects = all
    errpreset = moderate
    method = trap
    lteratio = 3.5
    relref = sigglobal
    cmin = 0 F
    gmin = 1 pS


Output and IC/nodeset summary:
                 probe  12      
                 save   2       (current)
                 save   3       (voltage)

.................9.................8.................7.................6.................5.................4.................3.................2.................1.................0
Number of accepted tran steps =             133

Maximum value achieved for any signal of each quantity: 
V: V(Z) = 709.5 mV
I: I(VX:p) = 36.61 uA
If your circuit contains signals of the same quantity that are vastly different in size (such as high voltage circuitry combined with low voltage control circuitry), you should consider specifying global option `bin_relref=yes'.

~~~~~~~~~~~~~~~~~~~~~~~~~~~~~~~~~
Post-Transient Simulation Summary
~~~~~~~~~~~~~~~~~~~~~~~~~~~~~~~~~
   -   To further speed up simulation, consider
          add ++aps on command line
~~~~~~~~~~~~~~~~~~~~~~~~~~~~~~~~~


During simulation, the CPU load for active processors is :
         0 (80.0 %)      1 (76.7 %)      2 (79.1 %)      3 (76.0 %)
        Total: 311.8%
Initial condition solution time: CPU = 390 us, elapsed = 392.914 us.
Intrinsic tran analysis time:    CPU = 20.932 ms, elapsed = 58.6162 ms.
Total time required for tran analysis `transient1_transient1': CPU = 23.557 ms, elapsed = 61.249 ms.
Time accumulated: CPU = 851.096 ms, elapsed = 3.53073 s.
Peak resident memory used = 132 Mbytes.

         MDL montecarlo: iteration = 23   ( 46.00% ) complete.

*****************************************************************
Transient Analysis `transient1_transient1': time = (0 s -> 40 ns)
*****************************************************************

Opening the PSFXL file teste2/inverter.raw/transient1_transient1.tran.tran ...
DC simulation time: CPU = 301 us, elapsed = 328.064 us.
Important parameter values:
    start = 0 s
    outputstart = 0 s
    stop = 40 ns
    step = 40 ps
    maxstep = 800 ps
    ic = all
    useprevic = no
    skipdc = no
    reltol = 1e-03
    abstol(V) = 1 uV
    abstol(I) = 1 pA
    temp = -25 C
    tnom = 27 C
    tempeffects = all
    errpreset = moderate
    method = trap
    lteratio = 3.5
    relref = sigglobal
    cmin = 0 F
    gmin = 1 pS


Output and IC/nodeset summary:
                 probe  12      
                 save   2       (current)
                 save   3       (voltage)

.................9.................8.................7.................6.................5.................4.................3.................2.................1.................0
Number of accepted tran steps =             132

Maximum value achieved for any signal of each quantity: 
V: V(Z) = 710.9 mV
I: I(VX:p) = 34.32 uA
If your circuit contains signals of the same quantity that are vastly different in size (such as high voltage circuitry combined with low voltage control circuitry), you should consider specifying global option `bin_relref=yes'.

~~~~~~~~~~~~~~~~~~~~~~~~~~~~~~~~~
Post-Transient Simulation Summary
~~~~~~~~~~~~~~~~~~~~~~~~~~~~~~~~~
   -   To further speed up simulation, consider
          add ++aps on command line
~~~~~~~~~~~~~~~~~~~~~~~~~~~~~~~~~


During simulation, the CPU load for active processors is :
         0 (80.1 %)      1 (77.0 %)      2 (79.4 %)      3 (76.3 %)
        Total: 312.7%
Initial condition solution time: CPU = 375 us, elapsed = 401.974 us.
Intrinsic tran analysis time:    CPU = 22.494 ms, elapsed = 61.018 ms.
Total time required for tran analysis `transient1_transient1': CPU = 24.973 ms, elapsed = 63.627 ms.
Time accumulated: CPU = 879.229 ms, elapsed = 3.64372 s.
Peak resident memory used = 132 Mbytes.

         MDL montecarlo: iteration = 24   ( 48.00% ) complete.

*****************************************************************
Transient Analysis `transient1_transient1': time = (0 s -> 40 ns)
*****************************************************************

Opening the PSFXL file teste2/inverter.raw/transient1_transient1.tran.tran ...
DC simulation time: CPU = 307 us, elapsed = 307.083 us.
Important parameter values:
    start = 0 s
    outputstart = 0 s
    stop = 40 ns
    step = 40 ps
    maxstep = 800 ps
    ic = all
    useprevic = no
    skipdc = no
    reltol = 1e-03
    abstol(V) = 1 uV
    abstol(I) = 1 pA
    temp = -25 C
    tnom = 27 C
    tempeffects = all
    errpreset = moderate
    method = trap
    lteratio = 3.5
    relref = sigglobal
    cmin = 0 F
    gmin = 1 pS


Output and IC/nodeset summary:
                 probe  12      
                 save   2       (current)
                 save   3       (voltage)

.................9.................8.................7.................6.................5.................4.................3.................2.................1.................0
Number of accepted tran steps =             123

Maximum value achieved for any signal of each quantity: 
V: V(Z) = 712 mV
I: I(VX:p) = 26.47 uA
If your circuit contains signals of the same quantity that are vastly different in size (such as high voltage circuitry combined with low voltage control circuitry), you should consider specifying global option `bin_relref=yes'.

~~~~~~~~~~~~~~~~~~~~~~~~~~~~~~~~~
Post-Transient Simulation Summary
~~~~~~~~~~~~~~~~~~~~~~~~~~~~~~~~~
   -   To further speed up simulation, consider
          add ++aps on command line
~~~~~~~~~~~~~~~~~~~~~~~~~~~~~~~~~


During simulation, the CPU load for active processors is :
         0 (80.0 %)      1 (77.3 %)      2 (79.5 %)      3 (76.4 %)
        Total: 313.1%
Initial condition solution time: CPU = 381 us, elapsed = 381.947 us.
Intrinsic tran analysis time:    CPU = 18.79 ms, elapsed = 52.6161 ms.
Total time required for tran analysis `transient1_transient1': CPU = 21.388 ms, elapsed = 55.2192 ms.
Time accumulated: CPU = 903.578 ms, elapsed = 3.74463 s.
Peak resident memory used = 132 Mbytes.

         MDL montecarlo: iteration = 25   ( 50.00% ) complete.

*****************************************************************
Transient Analysis `transient1_transient1': time = (0 s -> 40 ns)
*****************************************************************

Opening the PSFXL file teste2/inverter.raw/transient1_transient1.tran.tran ...
DC simulation time: CPU = 273 us, elapsed = 272.989 us.
Important parameter values:
    start = 0 s
    outputstart = 0 s
    stop = 40 ns
    step = 40 ps
    maxstep = 800 ps
    ic = all
    useprevic = no
    skipdc = no
    reltol = 1e-03
    abstol(V) = 1 uV
    abstol(I) = 1 pA
    temp = -25 C
    tnom = 27 C
    tempeffects = all
    errpreset = moderate
    method = trap
    lteratio = 3.5
    relref = sigglobal
    cmin = 0 F
    gmin = 1 pS


Output and IC/nodeset summary:
                 probe  12      
                 save   2       (current)
                 save   3       (voltage)

.................9.................8.................7.................6.................5.................4.................3.................2.................1.................0
Number of accepted tran steps =             126

Maximum value achieved for any signal of each quantity: 
V: V(Z) = 708.6 mV
I: I(VX:p) = 25.86 uA
If your circuit contains signals of the same quantity that are vastly different in size (such as high voltage circuitry combined with low voltage control circuitry), you should consider specifying global option `bin_relref=yes'.

~~~~~~~~~~~~~~~~~~~~~~~~~~~~~~~~~
Post-Transient Simulation Summary
~~~~~~~~~~~~~~~~~~~~~~~~~~~~~~~~~
   -   To further speed up simulation, consider
          add ++aps on command line
~~~~~~~~~~~~~~~~~~~~~~~~~~~~~~~~~


During simulation, the CPU load for active processors is :
         0 (80.1 %)      1 (77.3 %)      2 (79.9 %)      3 (76.6 %)
        Total: 313.9%
Initial condition solution time: CPU = 328 us, elapsed = 329.971 us.
Intrinsic tran analysis time:    CPU = 20.989 ms, elapsed = 53.601 ms.
Total time required for tran analysis `transient1_transient1': CPU = 23.234 ms, elapsed = 55.8529 ms.
Time accumulated: CPU = 929.754 ms, elapsed = 3.84281 s.
Peak resident memory used = 132 Mbytes.

         MDL montecarlo: iteration = 26   ( 52.00% ) complete.

*****************************************************************
Transient Analysis `transient1_transient1': time = (0 s -> 40 ns)
*****************************************************************

Opening the PSFXL file teste2/inverter.raw/transient1_transient1.tran.tran ...
DC simulation time: CPU = 296 us, elapsed = 298.023 us.
Important parameter values:
    start = 0 s
    outputstart = 0 s
    stop = 40 ns
    step = 40 ps
    maxstep = 800 ps
    ic = all
    useprevic = no
    skipdc = no
    reltol = 1e-03
    abstol(V) = 1 uV
    abstol(I) = 1 pA
    temp = -25 C
    tnom = 27 C
    tempeffects = all
    errpreset = moderate
    method = trap
    lteratio = 3.5
    relref = sigglobal
    cmin = 0 F
    gmin = 1 pS


Output and IC/nodeset summary:
                 probe  12      
                 save   2       (current)
                 save   3       (voltage)

.................9.................8.................7.................6.................5.................4.................3.................2.................1.................0
Number of accepted tran steps =             132

Maximum value achieved for any signal of each quantity: 
V: V(Z) = 710.9 mV
I: I(VX:p) = 36.37 uA
If your circuit contains signals of the same quantity that are vastly different in size (such as high voltage circuitry combined with low voltage control circuitry), you should consider specifying global option `bin_relref=yes'.

~~~~~~~~~~~~~~~~~~~~~~~~~~~~~~~~~
Post-Transient Simulation Summary
~~~~~~~~~~~~~~~~~~~~~~~~~~~~~~~~~
   -   To further speed up simulation, consider
          add ++aps on command line
~~~~~~~~~~~~~~~~~~~~~~~~~~~~~~~~~


During simulation, the CPU load for active processors is :
         0 (80.2 %)      1 (77.6 %)      2 (79.8 %)      3 (77.2 %)
        Total: 314.8%
Initial condition solution time: CPU = 365 us, elapsed = 367.88 us.
Intrinsic tran analysis time:    CPU = 22.983 ms, elapsed = 58.198 ms.
Total time required for tran analysis `transient1_transient1': CPU = 25.504 ms, elapsed = 60.7359 ms.
Time accumulated: CPU = 958.584 ms, elapsed = 3.97458 s.
Peak resident memory used = 132 Mbytes.

         MDL montecarlo: iteration = 27   ( 54.00% ) complete.

*****************************************************************
Transient Analysis `transient1_transient1': time = (0 s -> 40 ns)
*****************************************************************

Opening the PSFXL file teste2/inverter.raw/transient1_transient1.tran.tran ...
DC simulation time: CPU = 289 us, elapsed = 291.109 us.
Important parameter values:
    start = 0 s
    outputstart = 0 s
    stop = 40 ns
    step = 40 ps
    maxstep = 800 ps
    ic = all
    useprevic = no
    skipdc = no
    reltol = 1e-03
    abstol(V) = 1 uV
    abstol(I) = 1 pA
    temp = -25 C
    tnom = 27 C
    tempeffects = all
    errpreset = moderate
    method = trap
    lteratio = 3.5
    relref = sigglobal
    cmin = 0 F
    gmin = 1 pS


Output and IC/nodeset summary:
                 probe  12      
                 save   2       (current)
                 save   3       (voltage)

.................9.................8.................7.................6.................5.................4.................3.................2.................1.................0
Number of accepted tran steps =             117

Maximum value achieved for any signal of each quantity: 
V: V(Z) = 707 mV
I: I(VX:p) = 40.08 uA
If your circuit contains signals of the same quantity that are vastly different in size (such as high voltage circuitry combined with low voltage control circuitry), you should consider specifying global option `bin_relref=yes'.

~~~~~~~~~~~~~~~~~~~~~~~~~~~~~~~~~
Post-Transient Simulation Summary
~~~~~~~~~~~~~~~~~~~~~~~~~~~~~~~~~
   -   To further speed up simulation, consider
          add ++aps on command line
~~~~~~~~~~~~~~~~~~~~~~~~~~~~~~~~~


During simulation, the CPU load for active processors is :
         0 (80.3 %)      1 (77.9 %)      2 (80.2 %)      3 (77.6 %)
        Total: 316.0%
Initial condition solution time: CPU = 357 us, elapsed = 358.82 us.
Intrinsic tran analysis time:    CPU = 20.764 ms, elapsed = 58.779 ms.
Total time required for tran analysis `transient1_transient1': CPU = 23.248 ms, elapsed = 61.2731 ms.
Time accumulated: CPU = 985.176 ms, elapsed = 4.08941 s.
Peak resident memory used = 132 Mbytes.

         MDL montecarlo: iteration = 28   ( 56.00% ) complete.

*****************************************************************
Transient Analysis `transient1_transient1': time = (0 s -> 40 ns)
*****************************************************************

Opening the PSFXL file teste2/inverter.raw/transient1_transient1.tran.tran ...
DC simulation time: CPU = 432 us, elapsed = 442.028 us.
Important parameter values:
    start = 0 s
    outputstart = 0 s
    stop = 40 ns
    step = 40 ps
    maxstep = 800 ps
    ic = all
    useprevic = no
    skipdc = no
    reltol = 1e-03
    abstol(V) = 1 uV
    abstol(I) = 1 pA
    temp = -25 C
    tnom = 27 C
    tempeffects = all
    errpreset = moderate
    method = trap
    lteratio = 3.5
    relref = sigglobal
    cmin = 0 F
    gmin = 1 pS


Output and IC/nodeset summary:
                 probe  12      
                 save   2       (current)
                 save   3       (voltage)

.................9.................8.................7.................6.................5.................4.................3.................2.................1.................0
Number of accepted tran steps =             127

Maximum value achieved for any signal of each quantity: 
V: V(Z) = 710.8 mV
I: I(VX:p) = 41.41 uA
If your circuit contains signals of the same quantity that are vastly different in size (such as high voltage circuitry combined with low voltage control circuitry), you should consider specifying global option `bin_relref=yes'.

~~~~~~~~~~~~~~~~~~~~~~~~~~~~~~~~~
Post-Transient Simulation Summary
~~~~~~~~~~~~~~~~~~~~~~~~~~~~~~~~~
   -   To further speed up simulation, consider
          add ++aps on command line
~~~~~~~~~~~~~~~~~~~~~~~~~~~~~~~~~


During simulation, the CPU load for active processors is :
         0 (80.5 %)      1 (78.5 %)      2 (80.4 %)      3 (77.9 %)
        Total: 317.3%
Initial condition solution time: CPU = 525 us, elapsed = 535.965 us.
Intrinsic tran analysis time:    CPU = 21.026 ms, elapsed = 52.48 ms.
Total time required for tran analysis `transient1_transient1': CPU = 23.756 ms, elapsed = 55.2402 ms.
Time accumulated: CPU = 1.01232 s, elapsed = 4.19169 s.
Peak resident memory used = 132 Mbytes.

         MDL montecarlo: iteration = 29   ( 58.00% ) complete.

*****************************************************************
Transient Analysis `transient1_transient1': time = (0 s -> 40 ns)
*****************************************************************

Opening the PSFXL file teste2/inverter.raw/transient1_transient1.tran.tran ...
DC simulation time: CPU = 280 us, elapsed = 282.049 us.
Important parameter values:
    start = 0 s
    outputstart = 0 s
    stop = 40 ns
    step = 40 ps
    maxstep = 800 ps
    ic = all
    useprevic = no
    skipdc = no
    reltol = 1e-03
    abstol(V) = 1 uV
    abstol(I) = 1 pA
    temp = -25 C
    tnom = 27 C
    tempeffects = all
    errpreset = moderate
    method = trap
    lteratio = 3.5
    relref = sigglobal
    cmin = 0 F
    gmin = 1 pS


Output and IC/nodeset summary:
                 probe  12      
                 save   2       (current)
                 save   3       (voltage)

.................9.................8.................7.................6.................5.................4.................3.................2.................1.................0
Number of accepted tran steps =             123

Maximum value achieved for any signal of each quantity: 
V: V(Z) = 712 mV
I: I(VX:p) = 27.41 uA
If your circuit contains signals of the same quantity that are vastly different in size (such as high voltage circuitry combined with low voltage control circuitry), you should consider specifying global option `bin_relref=yes'.

~~~~~~~~~~~~~~~~~~~~~~~~~~~~~~~~~
Post-Transient Simulation Summary
~~~~~~~~~~~~~~~~~~~~~~~~~~~~~~~~~
   -   To further speed up simulation, consider
          add ++aps on command line
~~~~~~~~~~~~~~~~~~~~~~~~~~~~~~~~~


During simulation, the CPU load for active processors is :
         0 (80.8 %)      1 (78.6 %)      2 (80.7 %)      3 (78.2 %)
        Total: 318.2%
Initial condition solution time: CPU = 340 us, elapsed = 341.892 us.
Intrinsic tran analysis time:    CPU = 21.883 ms, elapsed = 63.5002 ms.
Total time required for tran analysis `transient1_transient1': CPU = 24.189 ms, elapsed = 65.8131 ms.
Time accumulated: CPU = 1.03989 s, elapsed = 4.29427 s.
Peak resident memory used = 132 Mbytes.

         MDL montecarlo: iteration = 30   ( 60.00% ) complete.

*****************************************************************
Transient Analysis `transient1_transient1': time = (0 s -> 40 ns)
*****************************************************************

Opening the PSFXL file teste2/inverter.raw/transient1_transient1.tran.tran ...
DC simulation time: CPU = 325 us, elapsed = 325.918 us.
Important parameter values:
    start = 0 s
    outputstart = 0 s
    stop = 40 ns
    step = 40 ps
    maxstep = 800 ps
    ic = all
    useprevic = no
    skipdc = no
    reltol = 1e-03
    abstol(V) = 1 uV
    abstol(I) = 1 pA
    temp = -25 C
    tnom = 27 C
    tempeffects = all
    errpreset = moderate
    method = trap
    lteratio = 3.5
    relref = sigglobal
    cmin = 0 F
    gmin = 1 pS


Output and IC/nodeset summary:
                 probe  12      
                 save   2       (current)
                 save   3       (voltage)

.................9.................8.................7.................6.................5.................4.................3.................2.................1.................0
Number of accepted tran steps =             127

Maximum value achieved for any signal of each quantity: 
V: V(Z) = 711.9 mV
I: I(VX:p) = 36.99 uA
If your circuit contains signals of the same quantity that are vastly different in size (such as high voltage circuitry combined with low voltage control circuitry), you should consider specifying global option `bin_relref=yes'.

~~~~~~~~~~~~~~~~~~~~~~~~~~~~~~~~~
Post-Transient Simulation Summary
~~~~~~~~~~~~~~~~~~~~~~~~~~~~~~~~~
   -   To further speed up simulation, consider
          add ++aps on command line
~~~~~~~~~~~~~~~~~~~~~~~~~~~~~~~~~


During simulation, the CPU load for active processors is :
         0 (80.8 %)      1 (78.8 %)      2 (80.7 %)      3 (78.5 %)
        Total: 318.8%
Initial condition solution time: CPU = 404 us, elapsed = 406.027 us.
Intrinsic tran analysis time:    CPU = 22.198 ms, elapsed = 65.1331 ms.
Total time required for tran analysis `transient1_transient1': CPU = 24.895 ms, elapsed = 67.848 ms.
Time accumulated: CPU = 1.06802 s, elapsed = 4.40456 s.
Peak resident memory used = 132 Mbytes.

         MDL montecarlo: iteration = 31   ( 62.00% ) complete.

*****************************************************************
Transient Analysis `transient1_transient1': time = (0 s -> 40 ns)
*****************************************************************

Opening the PSFXL file teste2/inverter.raw/transient1_transient1.tran.tran ...
DC simulation time: CPU = 326 us, elapsed = 326.872 us.
Important parameter values:
    start = 0 s
    outputstart = 0 s
    stop = 40 ns
    step = 40 ps
    maxstep = 800 ps
    ic = all
    useprevic = no
    skipdc = no
    reltol = 1e-03
    abstol(V) = 1 uV
    abstol(I) = 1 pA
    temp = -25 C
    tnom = 27 C
    tempeffects = all
    errpreset = moderate
    method = trap
    lteratio = 3.5
    relref = sigglobal
    cmin = 0 F
    gmin = 1 pS


Output and IC/nodeset summary:
                 probe  12      
                 save   2       (current)
                 save   3       (voltage)

.................9.................8.................7.................6.................5.................4.................3.................2.................1.................0
Number of accepted tran steps =             132

Maximum value achieved for any signal of each quantity: 
V: V(Z) = 710.5 mV
I: I(VX:p) = 41.01 uA
If your circuit contains signals of the same quantity that are vastly different in size (such as high voltage circuitry combined with low voltage control circuitry), you should consider specifying global option `bin_relref=yes'.

~~~~~~~~~~~~~~~~~~~~~~~~~~~~~~~~~
Post-Transient Simulation Summary
~~~~~~~~~~~~~~~~~~~~~~~~~~~~~~~~~
   -   To further speed up simulation, consider
          add ++aps on command line
~~~~~~~~~~~~~~~~~~~~~~~~~~~~~~~~~


During simulation, the CPU load for active processors is :
         0 (81.0 %)      1 (79.0 %)      2 (81.0 %)      3 (78.5 %)
        Total: 319.5%
Initial condition solution time: CPU = 405 us, elapsed = 408.173 us.
Intrinsic tran analysis time:    CPU = 21.472 ms, elapsed = 58.372 ms.
Total time required for tran analysis `transient1_transient1': CPU = 24.16 ms, elapsed = 61.0659 ms.
Time accumulated: CPU = 1.09528 s, elapsed = 4.50676 s.
Peak resident memory used = 132 Mbytes.

         MDL montecarlo: iteration = 32   ( 64.00% ) complete.

*****************************************************************
Transient Analysis `transient1_transient1': time = (0 s -> 40 ns)
*****************************************************************

Opening the PSFXL file teste2/inverter.raw/transient1_transient1.tran.tran ...
DC simulation time: CPU = 328 us, elapsed = 336.885 us.
Important parameter values:
    start = 0 s
    outputstart = 0 s
    stop = 40 ns
    step = 40 ps
    maxstep = 800 ps
    ic = all
    useprevic = no
    skipdc = no
    reltol = 1e-03
    abstol(V) = 1 uV
    abstol(I) = 1 pA
    temp = -25 C
    tnom = 27 C
    tempeffects = all
    errpreset = moderate
    method = trap
    lteratio = 3.5
    relref = sigglobal
    cmin = 0 F
    gmin = 1 pS


Output and IC/nodeset summary:
                 probe  12      
                 save   2       (current)
                 save   3       (voltage)

.................9.................8.................7.................6.................5.................4.................3.................2.................1.................0
Number of accepted tran steps =             123

Maximum value achieved for any signal of each quantity: 
V: V(Z) = 711.9 mV
I: I(VX:p) = 27.37 uA
If your circuit contains signals of the same quantity that are vastly different in size (such as high voltage circuitry combined with low voltage control circuitry), you should consider specifying global option `bin_relref=yes'.

~~~~~~~~~~~~~~~~~~~~~~~~~~~~~~~~~
Post-Transient Simulation Summary
~~~~~~~~~~~~~~~~~~~~~~~~~~~~~~~~~
   -   To further speed up simulation, consider
          add ++aps on command line
~~~~~~~~~~~~~~~~~~~~~~~~~~~~~~~~~


During simulation, the CPU load for active processors is :
         0 (81.4 %)      1 (78.9 %)      2 (80.7 %)      3 (78.3 %)
        Total: 319.4%
Initial condition solution time: CPU = 420 us, elapsed = 429.869 us.
Intrinsic tran analysis time:    CPU = 20.2 ms, elapsed = 63.5409 ms.
Total time required for tran analysis `transient1_transient1': CPU = 22.887 ms, elapsed = 66.246 ms.
Time accumulated: CPU = 1.12139 s, elapsed = 4.61233 s.
Peak resident memory used = 132 Mbytes.

         MDL montecarlo: iteration = 33   ( 66.00% ) complete.

*****************************************************************
Transient Analysis `transient1_transient1': time = (0 s -> 40 ns)
*****************************************************************

Opening the PSFXL file teste2/inverter.raw/transient1_transient1.tran.tran ...
DC simulation time: CPU = 244 us, elapsed = 244.856 us.
Important parameter values:
    start = 0 s
    outputstart = 0 s
    stop = 40 ns
    step = 40 ps
    maxstep = 800 ps
    ic = all
    useprevic = no
    skipdc = no
    reltol = 1e-03
    abstol(V) = 1 uV
    abstol(I) = 1 pA
    temp = -25 C
    tnom = 27 C
    tempeffects = all
    errpreset = moderate
    method = trap
    lteratio = 3.5
    relref = sigglobal
    cmin = 0 F
    gmin = 1 pS


Output and IC/nodeset summary:
                 probe  12      
                 save   2       (current)
                 save   3       (voltage)

[...]
                 save   3       (voltage)

.................9.................8.................7.................6.................5.................4.................3.................2.................1.................0
Number of accepted tran steps =             124

Maximum value achieved for any signal of each quantity: 
V: V(Z) = 706.8 mV
I: I(VX:p) = 34.54 uA
If your circuit contains signals of the same quantity that are vastly different in size (such as high voltage circuitry combined with low voltage control circuitry), you should consider specifying global option `bin_relref=yes'.

~~~~~~~~~~~~~~~~~~~~~~~~~~~~~~~~~
Post-Transient Simulation Summary
~~~~~~~~~~~~~~~~~~~~~~~~~~~~~~~~~
   -   To further speed up simulation, consider
          add ++aps on command line
~~~~~~~~~~~~~~~~~~~~~~~~~~~~~~~~~


During simulation, the CPU load for active processors is :
         0 (80.5 %)      1 (79.3 %)      2 (80.4 %)      3 (79.0 %)
        Total: 319.2%
Initial condition solution time: CPU = 405 us, elapsed = 407.934 us.
Intrinsic tran analysis time:    CPU = 20.611 ms, elapsed = 63.098 ms.
Total time required for tran analysis `transient1_transient1': CPU = 23.165 ms, elapsed = 65.665 ms.
Time accumulated: CPU = 4.09274 s, elapsed = 18.9574 s.
Peak resident memory used = 134 Mbytes.

         MDL montecarlo: iteration = 42   ( 84.00% ) complete.

*****************************************************************
Transient Analysis `transient1_transient1': time = (0 s -> 40 ns)
*****************************************************************

Opening the PSFXL file teste2/inverter.raw/transient1_transient1.tran.tran ...
DC simulation time: CPU = 288 us, elapsed = 288.01 us.
Important parameter values:
    start = 0 s
    outputstart = 0 s
    stop = 40 ns
    step = 40 ps
    maxstep = 800 ps
    ic = all
    useprevic = no
    skipdc = no
    reltol = 1e-03
    abstol(V) = 1 uV
    abstol(I) = 1 pA
    temp = 25 C
    tnom = 27 C
    tempeffects = all
    errpreset = moderate
    method = trap
    lteratio = 3.5
    relref = sigglobal
    cmin = 0 F
    gmin = 1 pS


Output and IC/nodeset summary:
                 probe  12      
                 save   2       (current)
                 save   3       (voltage)

.................9.................8.................7.................6.................5.................4.................3.................2.................1.................0
Number of accepted tran steps =             127

Maximum value achieved for any signal of each quantity: 
V: V(Z) = 710 mV
I: I(VX:p) = 33.64 uA
If your circuit contains signals of the same quantity that are vastly different in size (such as high voltage circuitry combined with low voltage control circuitry), you should consider specifying global option `bin_relref=yes'.

~~~~~~~~~~~~~~~~~~~~~~~~~~~~~~~~~
Post-Transient Simulation Summary
~~~~~~~~~~~~~~~~~~~~~~~~~~~~~~~~~
   -   To further speed up simulation, consider
          add ++aps on command line
~~~~~~~~~~~~~~~~~~~~~~~~~~~~~~~~~


During simulation, the CPU load for active processors is :
         0 (80.5 %)      1 (79.4 %)      2 (80.4 %)      3 (79.1 %)
        Total: 319.4%
Initial condition solution time: CPU = 347 us, elapsed = 349.045 us.
Intrinsic tran analysis time:    CPU = 19.27 ms, elapsed = 61.0759 ms.
Total time required for tran analysis `transient1_transient1': CPU = 21.497 ms, elapsed = 63.3168 ms.
Time accumulated: CPU = 4.11741 s, elapsed = 19.0684 s.
Peak resident memory used = 134 Mbytes.

         MDL montecarlo: iteration = 43   ( 86.00% ) complete.

*****************************************************************
Transient Analysis `transient1_transient1': time = (0 s -> 40 ns)
*****************************************************************

Opening the PSFXL file teste2/inverter.raw/transient1_transient1.tran.tran ...
DC simulation time: CPU = 284 us, elapsed = 283.957 us.
Important parameter values:
    start = 0 s
    outputstart = 0 s
    stop = 40 ns
    step = 40 ps
    maxstep = 800 ps
    ic = all
    useprevic = no
    skipdc = no
    reltol = 1e-03
    abstol(V) = 1 uV
    abstol(I) = 1 pA
    temp = 25 C
    tnom = 27 C
    tempeffects = all
    errpreset = moderate
    method = trap
    lteratio = 3.5
    relref = sigglobal
    cmin = 0 F
    gmin = 1 pS


Output and IC/nodeset summary:
                 probe  12      
                 save   2       (current)
                 save   3       (voltage)

.................9.................8.................7.................6.................5.................4.................3.................2.................1.................0
Number of accepted tran steps =             132

Maximum value achieved for any signal of each quantity: 
V: V(Z) = 709.3 mV
I: I(VX:p) = 34.64 uA
If your circuit contains signals of the same quantity that are vastly different in size (such as high voltage circuitry combined with low voltage control circuitry), you should consider specifying global option `bin_relref=yes'.

~~~~~~~~~~~~~~~~~~~~~~~~~~~~~~~~~
Post-Transient Simulation Summary
~~~~~~~~~~~~~~~~~~~~~~~~~~~~~~~~~
   -   To further speed up simulation, consider
          add ++aps on command line
~~~~~~~~~~~~~~~~~~~~~~~~~~~~~~~~~


During simulation, the CPU load for active processors is :
         0 (80.5 %)      1 (79.4 %)      2 (80.4 %)      3 (79.1 %)
        Total: 319.3%
Initial condition solution time: CPU = 345 us, elapsed = 346.899 us.
Intrinsic tran analysis time:    CPU = 22.902 ms, elapsed = 62.36 ms.
Total time required for tran analysis `transient1_transient1': CPU = 25.386 ms, elapsed = 64.8592 ms.
Time accumulated: CPU = 4.14591 s, elapsed = 19.1807 s.
Peak resident memory used = 134 Mbytes.

         MDL montecarlo: iteration = 44   ( 88.00% ) complete.

*****************************************************************
Transient Analysis `transient1_transient1': time = (0 s -> 40 ns)
*****************************************************************

Opening the PSFXL file teste2/inverter.raw/transient1_transient1.tran.tran ...
DC simulation time: CPU = 310 us, elapsed = 310.898 us.
Important parameter values:
    start = 0 s
    outputstart = 0 s
    stop = 40 ns
    step = 40 ps
    maxstep = 800 ps
    ic = all
    useprevic = no
    skipdc = no
    reltol = 1e-03
    abstol(V) = 1 uV
    abstol(I) = 1 pA
    temp = 25 C
    tnom = 27 C
    tempeffects = all
    errpreset = moderate
    method = trap
    lteratio = 3.5
    relref = sigglobal
    cmin = 0 F
    gmin = 1 pS


Output and IC/nodeset summary:
                 probe  12      
                 save   2       (current)
                 save   3       (voltage)

.................9.................8.................7.................6.................5.................4.................3.................2.................1.................0
Number of accepted tran steps =             126

Maximum value achieved for any signal of each quantity: 
V: V(Z) = 710.8 mV
I: I(VX:p) = 34.6 uA
If your circuit contains signals of the same quantity that are vastly different in size (such as high voltage circuitry combined with low voltage control circuitry), you should consider specifying global option `bin_relref=yes'.

~~~~~~~~~~~~~~~~~~~~~~~~~~~~~~~~~
Post-Transient Simulation Summary
~~~~~~~~~~~~~~~~~~~~~~~~~~~~~~~~~
   -   To further speed up simulation, consider
          add ++aps on command line
~~~~~~~~~~~~~~~~~~~~~~~~~~~~~~~~~


During simulation, the CPU load for active processors is :
         0 (80.5 %)      1 (79.4 %)      2 (80.5 %)      3 (79.2 %)
        Total: 319.5%
Initial condition solution time: CPU = 379 us, elapsed = 380.993 us.
Intrinsic tran analysis time:    CPU = 19.518 ms, elapsed = 56.9201 ms.
Total time required for tran analysis `transient1_transient1': CPU = 22.073 ms, elapsed = 59.479 ms.
Time accumulated: CPU = 4.171 s, elapsed = 19.2824 s.
Peak resident memory used = 134 Mbytes.

         MDL montecarlo: iteration = 45   ( 90.00% ) complete.

*****************************************************************
Transient Analysis `transient1_transient1': time = (0 s -> 40 ns)
*****************************************************************

Opening the PSFXL file teste2/inverter.raw/transient1_transient1.tran.tran ...
DC simulation time: CPU = 417 us, elapsed = 419.855 us.
Important parameter values:
    start = 0 s
    outputstart = 0 s
    stop = 40 ns
    step = 40 ps
    maxstep = 800 ps
    ic = all
    useprevic = no
    skipdc = no
    reltol = 1e-03
    abstol(V) = 1 uV
    abstol(I) = 1 pA
    temp = 25 C
    tnom = 27 C
    tempeffects = all
    errpreset = moderate
    method = trap
    lteratio = 3.5
    relref = sigglobal
    cmin = 0 F
    gmin = 1 pS


Output and IC/nodeset summary:
                 probe  12      
                 save   2       (current)
                 save   3       (voltage)

.................9.................8.................7.................6.................5.................4.................3.................2.................1.................0
Number of accepted tran steps =             125

Maximum value achieved for any signal of each quantity: 
V: V(Z) = 707.2 mV
I: I(VX:p) = 36.58 uA
If your circuit contains signals of the same quantity that are vastly different in size (such as high voltage circuitry combined with low voltage control circuitry), you should consider specifying global option `bin_relref=yes'.

~~~~~~~~~~~~~~~~~~~~~~~~~~~~~~~~~
Post-Transient Simulation Summary
~~~~~~~~~~~~~~~~~~~~~~~~~~~~~~~~~
   -   To further speed up simulation, consider
          add ++aps on command line
~~~~~~~~~~~~~~~~~~~~~~~~~~~~~~~~~


During simulation, the CPU load for active processors is :
         0 (80.5 %)      1 (79.4 %)      2 (80.6 %)      3 (79.2 %)
        Total: 319.6%
Initial condition solution time: CPU = 549 us, elapsed = 560.999 us.
Intrinsic tran analysis time:    CPU = 21.562 ms, elapsed = 67.766 ms.
Total time required for tran analysis `transient1_transient1': CPU = 24.462 ms, elapsed = 70.6849 ms.
Time accumulated: CPU = 4.1982 s, elapsed = 19.4007 s.
Peak resident memory used = 134 Mbytes.

         MDL montecarlo: iteration = 46   ( 92.00% ) complete.

*****************************************************************
Transient Analysis `transient1_transient1': time = (0 s -> 40 ns)
*****************************************************************

Opening the PSFXL file teste2/inverter.raw/transient1_transient1.tran.tran ...
DC simulation time: CPU = 365 us, elapsed = 365.973 us.
Important parameter values:
    start = 0 s
    outputstart = 0 s
    stop = 40 ns
    step = 40 ps
    maxstep = 800 ps
    ic = all
    useprevic = no
    skipdc = no
    reltol = 1e-03
    abstol(V) = 1 uV
    abstol(I) = 1 pA
    temp = 25 C
    tnom = 27 C
    tempeffects = all
    errpreset = moderate
    method = trap
    lteratio = 3.5
    relref = sigglobal
    cmin = 0 F
    gmin = 1 pS


Output and IC/nodeset summary:
                 probe  12      
                 save   2       (current)
                 save   3       (voltage)

.................9.................8.................7.................6.................5.................4.................3.................2.................1.................0
Number of accepted tran steps =             127

Maximum value achieved for any signal of each quantity: 
V: V(Z) = 708.9 mV
I: I(VX:p) = 37.33 uA
If your circuit contains signals of the same quantity that are vastly different in size (such as high voltage circuitry combined with low voltage control circuitry), you should consider specifying global option `bin_relref=yes'.

~~~~~~~~~~~~~~~~~~~~~~~~~~~~~~~~~
Post-Transient Simulation Summary
~~~~~~~~~~~~~~~~~~~~~~~~~~~~~~~~~
   -   To further speed up simulation, consider
          add ++aps on command line
~~~~~~~~~~~~~~~~~~~~~~~~~~~~~~~~~


During simulation, the CPU load for active processors is :
         0 (80.6 %)      1 (79.4 %)      2 (80.7 %)      3 (79.2 %)
        Total: 319.8%
Initial condition solution time: CPU = 452 us, elapsed = 455.856 us.
Intrinsic tran analysis time:    CPU = 19.453 ms, elapsed = 57.189 ms.
Total time required for tran analysis `transient1_transient1': CPU = 22.229 ms, elapsed = 59.9849 ms.
Time accumulated: CPU = 4.22324 s, elapsed = 19.4986 s.
Peak resident memory used = 134 Mbytes.

         MDL montecarlo: iteration = 47   ( 94.00% ) complete.

*****************************************************************
Transient Analysis `transient1_transient1': time = (0 s -> 40 ns)
*****************************************************************

Opening the PSFXL file teste2/inverter.raw/transient1_transient1.tran.tran ...
DC simulation time: CPU = 419 us, elapsed = 456.095 us.
Important parameter values:
    start = 0 s
    outputstart = 0 s
    stop = 40 ns
    step = 40 ps
    maxstep = 800 ps
    ic = all
    useprevic = no
    skipdc = no
    reltol = 1e-03
    abstol(V) = 1 uV
    abstol(I) = 1 pA
    temp = 25 C
    tnom = 27 C
    tempeffects = all
    errpreset = moderate
    method = trap
    lteratio = 3.5
    relref = sigglobal
    cmin = 0 F
    gmin = 1 pS


Output and IC/nodeset summary:
                 probe  12      
                 save   2       (current)
                 save   3       (voltage)

.................9.................8.................7.................6.................5.................4.................3.................2.................1.................0
Number of accepted tran steps =             126

Maximum value achieved for any signal of each quantity: 
V: V(Z) = 710.3 mV
I: I(VX:p) = 33.75 uA
If your circuit contains signals of the same quantity that are vastly different in size (such as high voltage circuitry combined with low voltage control circuitry), you should consider specifying global option `bin_relref=yes'.

~~~~~~~~~~~~~~~~~~~~~~~~~~~~~~~~~
Post-Transient Simulation Summary
~~~~~~~~~~~~~~~~~~~~~~~~~~~~~~~~~
   -   To further speed up simulation, consider
          add ++aps on command line
~~~~~~~~~~~~~~~~~~~~~~~~~~~~~~~~~


During simulation, the CPU load for active processors is :
         0 (80.6 %)      1 (79.5 %)      2 (80.7 %)      3 (79.2 %)
        Total: 320.1%
Initial condition solution time: CPU = 520 us, elapsed = 565.052 us.
Intrinsic tran analysis time:    CPU = 21.405 ms, elapsed = 69.8409 ms.
Total time required for tran analysis `transient1_transient1': CPU = 23.993 ms, elapsed = 72.9079 ms.
Time accumulated: CPU = 4.25033 s, elapsed = 19.6119 s.
Peak resident memory used = 134 Mbytes.

         MDL montecarlo: iteration = 48   ( 96.00% ) complete.

*****************************************************************
Transient Analysis `transient1_transient1': time = (0 s -> 40 ns)
*****************************************************************

Opening the PSFXL file teste2/inverter.raw/transient1_transient1.tran.tran ...
DC simulation time: CPU = 453 us, elapsed = 457.048 us.
Important parameter values:
    start = 0 s
    outputstart = 0 s
    stop = 40 ns
    step = 40 ps
    maxstep = 800 ps
    ic = all
    useprevic = no
    skipdc = no
    reltol = 1e-03
    abstol(V) = 1 uV
    abstol(I) = 1 pA
    temp = 25 C
    tnom = 27 C
    tempeffects = all
    errpreset = moderate
    method = trap
    lteratio = 3.5
    relref = sigglobal
    cmin = 0 F
    gmin = 1 pS


Output and IC/nodeset summary:
                 probe  12      
                 save   2       (current)
                 save   3       (voltage)

.................9.................8.................7.................6.................5.................4.................3.................2.................1.................0
Number of accepted tran steps =             126

Maximum value achieved for any signal of each quantity: 
V: V(Z) = 710.2 mV
I: I(VX:p) = 33.21 uA
If your circuit contains signals of the same quantity that are vastly different in size (such as high voltage circuitry combined with low voltage control circuitry), you should consider specifying global option `bin_relref=yes'.

~~~~~~~~~~~~~~~~~~~~~~~~~~~~~~~~~
Post-Transient Simulation Summary
~~~~~~~~~~~~~~~~~~~~~~~~~~~~~~~~~
   -   To further speed up simulation, consider
          add ++aps on command line
~~~~~~~~~~~~~~~~~~~~~~~~~~~~~~~~~


During simulation, the CPU load for active processors is :
         0 (80.6 %)      1 (79.5 %)      2 (80.7 %)      3 (79.4 %)
        Total: 320.1%
Initial condition solution time: CPU = 586 us, elapsed = 590.801 us.
Intrinsic tran analysis time:    CPU = 20.393 ms, elapsed = 67.4112 ms.
Total time required for tran analysis `transient1_transient1': CPU = 23.66 ms, elapsed = 70.7021 ms.
Time accumulated: CPU = 4.27747 s, elapsed = 19.7275 s.
Peak resident memory used = 134 Mbytes.

         MDL montecarlo: iteration = 49   ( 98.00% ) complete.

*****************************************************************
Transient Analysis `transient1_transient1': time = (0 s -> 40 ns)
*****************************************************************

Opening the PSFXL file teste2/inverter.raw/transient1_transient1.tran.tran ...
DC simulation time: CPU = 308 us, elapsed = 308.99 us.
Important parameter values:
    start = 0 s
    outputstart = 0 s
    stop = 40 ns
    step = 40 ps
    maxstep = 800 ps
    ic = all
    useprevic = no
    skipdc = no
    reltol = 1e-03
    abstol(V) = 1 uV
    abstol(I) = 1 pA
    temp = 25 C
    tnom = 27 C
    tempeffects = all
    errpreset = moderate
    method = trap
    lteratio = 3.5
    relref = sigglobal
    cmin = 0 F
    gmin = 1 pS


Output and IC/nodeset summary:
                 probe  12      
                 save   2       (current)
                 save   3       (voltage)

.................9.................8.................7.................6.................5.................4.................3.................2.................1.................0
Number of accepted tran steps =             119

Maximum value achieved for any signal of each quantity: 
V: V(Z) = 708.4 mV
I: I(VX:p) = 37 uA
If your circuit contains signals of the same quantity that are vastly different in size (such as high voltage circuitry combined with low voltage control circuitry), you should consider specifying global option `bin_relref=yes'.

~~~~~~~~~~~~~~~~~~~~~~~~~~~~~~~~~
Post-Transient Simulation Summary
~~~~~~~~~~~~~~~~~~~~~~~~~~~~~~~~~
   -   To further speed up simulation, consider
          add ++aps on command line
~~~~~~~~~~~~~~~~~~~~~~~~~~~~~~~~~


During simulation, the CPU load for active processors is :
         0 (80.6 %)      1 (79.6 %)      2 (80.7 %)      3 (79.4 %)
        Total: 320.4%
Initial condition solution time: CPU = 379 us, elapsed = 380.993 us.
Intrinsic tran analysis time:    CPU = 20.602 ms, elapsed = 64.1761 ms.
Total time required for tran analysis `transient1_transient1': CPU = 23.283 ms, elapsed = 66.8631 ms.
Time accumulated: CPU = 4.30391 s, elapsed = 19.8418 s.
Peak resident memory used = 134 Mbytes.

         MDL montecarlo: iteration = 50   ( 100.00% ) complete.

name            max             min             mean            stddev          skewness        
iint            -7.36721e-16    -7.90986e-16    -7.47257e-16    9.71964e-18     -2.89928        
total_power     -1.28926e-08    -1.38423e-08    -1.3077e-08     1.70094e-10     -2.89928        
tphl            1.95742e-11     1.06126e-11     1.33529e-11     1.78466e-12     1.47554         
tplh            2.09339e-11     1.14177e-11     1.55366e-11     2.44946e-12     0.650371        


Aggregate audit (3:28:32 PM, Thur May 25, 2023):
Time used: CPU = 4.32 s, elapsed = 19.9 s, util. = 21.7%.
Time spent in licensing: elapsed = 16.8 ms.
Peak memory used = 135 Mbytes.
Simulation started at: 3:28:12 PM, Thur May 25, 2023, ended at: 3:28:32 PM, Thur May 25, 2023, with elapsed time (wall clock): 19.9 s.
spectre completes with 0 errors, 0 warnings, and 1 notice.
