
Spectre (R) Circuit Simulator
Version 19.1.0.578.isr15 64bit -- 27 Jan 2021
Copyright (C) 1989-2020 Cadence Design Systems, Inc. All rights reserved worldwide. Cadence and Spectre are registered trademarks of Cadence Design Systems, Inc. All others are the property of their respective holders.

Includes RSA BSAFE(R) Cryptographic or Security Protocol Software from RSA Security, Inc.

User: gabriel.jacinto   Host: virmic01   HostID: A296C20A   PID: 1578390
Memory  available: 133.2019 MB  physical: 3.9992 GB
Linux   : Rocky Linux release 8.5 (Green Obsidian)
CPU Type: Intel(R) Core(TM) i3-3240 CPU @ 3.40GHz
        Socket: Processors [Frequency] (Hyperthreaded Processor)
        0:       0 [3340.0] (  2 ),  1 [3399.9] (  3 )
        
System load averages (1min, 5min, 15min) : 5.5 %, 10.2 %, 7.8 %
Hyperthreading is enabled


Simulating `inverter.sp' on virmic01 at 8:18:02 PM, Wed May 24, 2023 (process id: 1578390).
Current working directory: /home/100000000981355/Desktop/PIC2020/FINFET/7nm/NOT/Data/sim1
Environment variable:
    SPECTRE_DEFAULTS=-E
Command line:
    /usr/eda/cadence/spectre1910_578/tools.lnx86/bin/spectre -64  \
        -outdir teste inverter.sp

Loading /usr/eda/cadence/spectre1910_578/tools.lnx86/cmi/lib/64bit/5.0/libinfineon_sh.so ...
Loading /usr/eda/cadence/spectre1910_578/tools.lnx86/cmi/lib/64bit/5.0/libphilips_o_sh.so ...
Loading /usr/eda/cadence/spectre1910_578/tools.lnx86/cmi/lib/64bit/5.0/libphilips_sh.so ...
Loading /usr/eda/cadence/spectre1910_578/tools.lnx86/cmi/lib/64bit/5.0/libsparam_sh.so ...
Loading /usr/eda/cadence/spectre1910_578/tools.lnx86/cmi/lib/64bit/5.0/libstmodels_sh.so ...
Reading file:  /home/100000000981355/Desktop/PIC2020/FINFET/7nm/NOT/Data/sim1/inverter.sp
Reading file:  /usr/eda/cadence/spectre1910_578/tools.lnx86/spectre/etc/configs/spectre.cfg
Reading file:  /usr/include/stdc-predef.h
Reading file:  /home/100000000981355/Desktop/PIC2020/FINFET/7nm/NOT/Data/lib/FET_TT.pm
Reading file:  /home/100000000981355/Desktop/PIC2020/FINFET/7nm/NOT/Data/sim1/var.sp
Time for NDB Parsing: CPU = 90.742 ms, elapsed = 199.516 ms.
Time accumulated: CPU = 143.126 ms, elapsed = 199.52 ms.
Peak resident memory used = 98.6 Mbytes.


Warning from spectre during hierarchy flattening.
    WARNING (SFE-105): "inverter.sp" 53: `post' has been ignored because it is not an option. Correct the name and rerun the simulation. Type `spectre -h options' to get more information on valid option parameters.
    WARNING (SFE-105): "inverter.sp" 54: `measform' has been ignored because it is not an option. Correct the name and rerun the simulation. Type `spectre -h options' to get more information on valid option parameters.

Time for Elaboration: CPU = 33.995 ms, elapsed = 39.6729 ms.
Time accumulated: CPU = 177.346 ms, elapsed = 239.422 ms.
Peak resident memory used = 108 Mbytes.

Loading /usr/eda/cadence/spectre1910_578/tools.lnx86/spectre/lib/64bit/mdl/libSpectreEH_sh.so ...

Time for EDB Visiting: CPU = 29.206 ms, elapsed = 7.46347 s.
Time accumulated: CPU = 206.765 ms, elapsed = 7.70311 s.
Peak resident memory used = 119 Mbytes.


Notice from spectre during topology check.
    No connections to node `nfet_phig'.
    No connections to node `pfet_phig'.
    No DC path from node `nfet_phig' to ground, Gmin installed to provide path.
    No DC path from node `pfet_phig' to ground, Gmin installed to provide path.


Global user options:

Scoped user options:

Circuit inventory:
              nodes 5
            bsimcmg 2     
          capacitor 1     
            vsource 3     

Analysis and control statement inventory:
         montecarlo 1     
              sweep 1     
               tran 1     

Output statements:
             .probe 5     
           .measure 4     
               save 0     

Time for parsing: CPU = 4.338 ms, elapsed = 627.779 ms.
Time accumulated: CPU = 211.345 ms, elapsed = 8.33113 s.
Peak resident memory used = 122 Mbytes.

~~~~~~~~~~~~~~~~~~~~~~
Pre-Simulation Summary
~~~~~~~~~~~~~~~~~~~~~~
~~~~~~~~~~~~~~~~~~~~~~

Warning from spectre.
    WARNING (CMI-2178): VSS: Terminals must not be connected together (to node `0').



************************************************
MDL montecarlo analysis: iteration = (1 -> 50).
************************************************
Important parameter values:
    seed = 0
    sampling = standard
    variations = all
    ignoremode = default
    firstrun = 1
    numruns = 50
    nullmfactorcorrelation = no
    donominal = no
    method = standard

Warning from spectre.
    WARNING (CMI-2178): VSS: Terminals must not be connected together (to node `0').


*********************************************************************
Transient Analysis `transient1-001_transient1': time = (0 s -> 10 ns)
*********************************************************************

Opening the PSFXL file teste/inverter.raw/transient1-001_transient1.tran.tran ...

Notice from spectre during transient analysis `transient1-001_transient1', during task `MDLControl'.
    No outputs were found. Loosening output filter criterion to `allpub'.

DC simulation time: CPU = 498 us, elapsed = 509.024 us.
Important parameter values:
    start = 0 s
    outputstart = 0 s
    stop = 10 ns
    step = 10 ps
    maxstep = 200 ps
    ic = all
    useprevic = no
    skipdc = no
    reltol = 1e-03
    abstol(V) = 1 uV
    abstol(I) = 1 pA
    temp = -25 C
    tnom = 27 C
    tempeffects = all
    errpreset = moderate
    method = traponly
    lteratio = 3.5
    relref = sigglobal
    cmin = 0 F
    gmin = 1 pS


Error found by spectre during transient analysis `transient1-001_transient1', during task `MDLControl'.
    ERROR (SPECTRE-16045): Cz: Undefined parameter name `power'.
Warning from spectre during transient analysis `transient1-001_transient1', during task `MDLControl'.
    WARNING (MDL-1101): "inverter.sp" 48: MDL expression for identifier '__mdlvar_5' can not be evaluated due to previous errors.


Output and IC/nodeset summary:
                 probe  20      
                 save   2       (current)
                 save   5       (voltage)

............

Notice from spectre at time = 698.083 ps during transient analysis `transient1-001_transient1', during task `MDLControl'.
    Found trapezoidal ringing on node VY:p.

.............

Notice from spectre at time = 835.005 ps during transient analysis `transient1-001_transient1', during task `MDLControl'.
    Found trapezoidal ringing on node VY:p.

................

Notice from spectre at time = 1.01 ns during transient analysis `transient1-001_transient1', during task `MDLControl'.
    Found trapezoidal ringing on node VY:p.

..................9.....

Notice from spectre at time = 1.38382 ns during transient analysis `transient1-001_transient1', during task `MDLControl'.
    Found trapezoidal ringing on node VY:p.

..................9.......

Notice from spectre at time = 1.5 ns during transient analysis `transient1-001_transient1', during task `MDLControl'.
    Found trapezoidal ringing on node VY:p.
        Further occurrences of this notice will be suppressed.

..................9..................8..................7..................6..................5..................4..................3..................2..................1..................0
Number of accepted tran steps =             555

Notice from spectre during transient analysis `transient1-001_transient1', during task `MDLControl'.
    Trapezoidal ringing is detected during tran analysis.
        Please use method=trap for better results and performance.


Maximum value achieved for any signal of each quantity: 
V: V(Z) = 710.9 mV
I: I(VX:p) = 36.15 uA
If your circuit contains signals of the same quantity that are vastly different in size (such as high voltage circuitry combined with low voltage control circuitry), you should consider specifying global option `bin_relref=yes'.

~~~~~~~~~~~~~~~~~~~~~~~~~~~~~~~~~
Post-Transient Simulation Summary
~~~~~~~~~~~~~~~~~~~~~~~~~~~~~~~~~
   -   To further speed up simulation, consider
          add ++aps on command line
~~~~~~~~~~~~~~~~~~~~~~~~~~~~~~~~~


During simulation, the CPU load for active processors is :
         0 (17.3 %)      1 (17.8 %)      2 (17.3 %)      3 (23.6 %)
        Total: 76.0%
Initial condition solution time: CPU = 617 us, elapsed = 629.187 us.
Intrinsic tran analysis time:    CPU = 78.731 ms, elapsed = 624.967 ms.
Total time required for tran analysis `transient1-001_transient1': CPU = 91.866 ms, elapsed = 656.362 ms.
Time accumulated: CPU = 319.031 ms, elapsed = 9.71608 s.
Peak resident memory used = 128 Mbytes.


Notice from spectre during task `MDLControl'.
    40 notices suppressed.

         MDL montecarlo: iteration = 1   ( 2.00% ) complete.

Warning from spectre.
    WARNING (CMI-2178): VSS: Terminals must not be connected together (to node `0').


*********************************************************************
Transient Analysis `transient1-002_transient1': time = (0 s -> 10 ns)
*********************************************************************

Opening the PSFXL file teste/inverter.raw/transient1-002_transient1.tran.tran ...

Notice from spectre during transient analysis `transient1-002_transient1', during task `MDLControl'.
    No outputs were found. Loosening output filter criterion to `allpub'.

DC simulation time: CPU = 345 us, elapsed = 345.945 us.
Important parameter values:
    start = 0 s
    outputstart = 0 s
    stop = 10 ns
    step = 10 ps
    maxstep = 200 ps
    ic = all
    useprevic = no
    skipdc = no
    reltol = 1e-03
    abstol(V) = 1 uV
    abstol(I) = 1 pA
    temp = -25 C
    tnom = 27 C
    tempeffects = all
    errpreset = moderate
    method = traponly
    lteratio = 3.5
    relref = sigglobal
    cmin = 0 F
    gmin = 1 pS


Error found by spectre during transient analysis `transient1-002_transient1', during task `MDLControl'.
    ERROR (SPECTRE-16045): Cz: Undefined parameter name `power'.
Warning from spectre during transient analysis `transient1-002_transient1', during task `MDLControl'.
    WARNING (MDL-1101): "inverter.sp" 48: MDL expression for identifier '__mdlvar_5' can not be evaluated due to previous errors.


Output and IC/nodeset summary:
                 probe  20      
                 save   2       (current)
                 save   5       (voltage)

............

Notice from spectre at time = 698.083 ps during transient analysis `transient1-002_transient1', during task `MDLControl'.
    Found trapezoidal ringing on node VY:p.

.............

Notice from spectre at time = 835.005 ps during transient analysis `transient1-002_transient1', during task `MDLControl'.
    Found trapezoidal ringing on node VY:p.

................

Notice from spectre at time = 1.01 ns during transient analysis `transient1-002_transient1', during task `MDLControl'.
    Found trapezoidal ringing on node VY:p.

..................9.....

Notice from spectre at time = 1.38382 ns during transient analysis `transient1-002_transient1', during task `MDLControl'.
    Found trapezoidal ringing on node VY:p.

..................9.......

Notice from spectre at time = 1.5 ns during transient analysis `transient1-002_transient1', during task `MDLControl'.
    Found trapezoidal ringing on node VY:p.
        Further occurrences of this notice will be suppressed.

..................9..................8..................7..................6..................5..................4..................3..................2..................1..................0
Number of accepted tran steps =             555

Notice from spectre during transient analysis `transient1-002_transient1', during task `MDLControl'.
    Trapezoidal ringing is detected during tran analysis.
        Please use method=trap for better results and performance.


Maximum value achieved for any signal of each quantity: 
V: V(Z) = 710.9 mV
I: I(VX:p) = 36.15 uA
If your circuit contains signals of the same quantity that are vastly different in size (such as high voltage circuitry combined with low voltage control circuitry), you should consider specifying global option `bin_relref=yes'.

~~~~~~~~~~~~~~~~~~~~~~~~~~~~~~~~~
Post-Transient Simulation Summary
~~~~~~~~~~~~~~~~~~~~~~~~~~~~~~~~~
   -   To further speed up simulation, consider
          add ++aps on command line
~~~~~~~~~~~~~~~~~~~~~~~~~~~~~~~~~


During simulation, the CPU load for active processors is :
         0 (21.0 %)      1 (21.7 %)      2 (20.6 %)      3 (27.0 %)
        Total: 90.3%
Initial condition solution time: CPU = 414 us, elapsed = 416.04 us.
Intrinsic tran analysis time:    CPU = 78.59 ms, elapsed = 121.959 ms.
Total time required for tran analysis `transient1-002_transient1': CPU = 90.345 ms, elapsed = 133.806 ms.
Time accumulated: CPU = 412.94 ms, elapsed = 9.89388 s.
Peak resident memory used = 128 Mbytes.


Notice from spectre during task `MDLControl'.
    40 notices suppressed.

         MDL montecarlo: iteration = 2   ( 4.00% ) complete.

Warning from spectre.
    WARNING (CMI-2178): VSS: Terminals must not be connected together (to node `0').


*********************************************************************
Transient Analysis `transient1-003_transient1': time = (0 s -> 10 ns)
*********************************************************************

Opening the PSFXL file teste/inverter.raw/transient1-003_transient1.tran.tran ...

Notice from spectre during transient analysis `transient1-003_transient1', during task `MDLControl'.
    No outputs were found. Loosening output filter criterion to `allpub'.

DC simulation time: CPU = 347 us, elapsed = 350.952 us.
Important parameter values:
    start = 0 s
    outputstart = 0 s
    stop = 10 ns
    step = 10 ps
    maxstep = 200 ps
    ic = all
    useprevic = no
    skipdc = no
    reltol = 1e-03
    abstol(V) = 1 uV
    abstol(I) = 1 pA
    temp = -25 C
    tnom = 27 C
    tempeffects = all
    errpreset = moderate
    method = traponly
    lteratio = 3.5
    relref = sigglobal
    cmin = 0 F
    gmin = 1 pS


Error found by spectre during transient analysis `transient1-003_transient1', during task `MDLControl'.
    ERROR (SPECTRE-16045): Cz: Undefined parameter name `power'.
Warning from spectre during transient analysis `transient1-003_transient1', during task `MDLControl'.
    WARNING (MDL-1101): "inverter.sp" 48: MDL expression for identifier '__mdlvar_5' can not be evaluated due to previous errors.


Output and IC/nodeset summary:
                 probe  20      
                 save   2       (current)
                 save   5       (voltage)

............

Notice from spectre at time = 698.083 ps during transient analysis `transient1-003_transient1', during task `MDLControl'.
    Found trapezoidal ringing on node VY:p.

.............

Notice from spectre at time = 835.005 ps during transient analysis `transient1-003_transient1', during task `MDLControl'.
    Found trapezoidal ringing on node VY:p.

................

Notice from spectre at time = 1.01 ns during transient analysis `transient1-003_transient1', during task `MDLControl'.
    Found trapezoidal ringing on node VY:p.

..................9.....

Notice from spectre at time = 1.38382 ns during transient analysis `transient1-003_transient1', during task `MDLControl'.
    Found trapezoidal ringing on node VY:p.

..................9.......

Notice from spectre at time = 1.5 ns during transient analysis `transient1-003_transient1', during task `MDLControl'.
    Found trapezoidal ringing on node VY:p.
        Further occurrences of this notice will be suppressed.

..................9..................8..................7..................6..................5..................4..................3..................2..................1..................0
Number of accepted tran steps =             555

Notice from spectre during transient analysis `transient1-003_transient1', during task `MDLControl'.
    Trapezoidal ringing is detected during tran analysis.
        Please use method=trap for better results and performance.


Maximum value achieved for any signal of each quantity: 
V: V(Z) = 710.9 mV
I: I(VX:p) = 36.15 uA
If your circuit contains signals of the same quantity that are vastly different in size (such as high voltage circuitry combined with low voltage control circuitry), you should consider specifying global option `bin_relref=yes'.

~~~~~~~~~~~~~~~~~~~~~~~~~~~~~~~~~
Post-Transient Simulation Summary
~~~~~~~~~~~~~~~~~~~~~~~~~~~~~~~~~
   -   To further speed up simulation, consider
          add ++aps on command line
~~~~~~~~~~~~~~~~~~~~~~~~~~~~~~~~~


During simulation, the CPU load for active processors is :
         0 (22.1 %)      1 (22.8 %)      2 (21.9 %)      3 (28.1 %)
        Total: 94.9%
Initial condition solution time: CPU = 453 us, elapsed = 457.048 us.
Intrinsic tran analysis time:    CPU = 77.256 ms, elapsed = 115.29 ms.
Total time required for tran analysis `transient1-003_transient1': CPU = 91.84 ms, elapsed = 129.954 ms.
Time accumulated: CPU = 507.951 ms, elapsed = 10.0636 s.
Peak resident memory used = 128 Mbytes.


Notice from spectre during task `MDLControl'.
    40 notices suppressed.

         MDL montecarlo: iteration = 3   ( 6.00% ) complete.

Warning from spectre.
    WARNING (CMI-2178): VSS: Terminals must not be connected together (to node `0').


*********************************************************************
Transient Analysis `transient1-004_transient1': time = (0 s -> 10 ns)
*********************************************************************

Opening the PSFXL file teste/inverter.raw/transient1-004_transient1.tran.tran ...

Notice from spectre during transient analysis `transient1-004_transient1', during task `MDLControl'.
    No outputs were found. Loosening output filter criterion to `allpub'.

DC simulation time: CPU = 337 us, elapsed = 338.793 us.
Important parameter values:
    start = 0 s
    outputstart = 0 s
    stop = 10 ns
    step = 10 ps
    maxstep = 200 ps
    ic = all
    useprevic = no
    skipdc = no
    reltol = 1e-03
    abstol(V) = 1 uV
    abstol(I) = 1 pA
    temp = -25 C
    tnom = 27 C
    tempeffects = all
    errpreset = moderate
    method = traponly
    lteratio = 3.5
    relref = sigglobal
    cmin = 0 F
    gmin = 1 pS


Error found by spectre during transient analysis `transient1-004_transient1', during task `MDLControl'.
    ERROR (SPECTRE-16045): Cz: Undefined parameter name `power'.
Warning from spectre during transient analysis `transient1-004_transient1', during task `MDLControl'.
    WARNING (MDL-1101): "inverter.sp" 48: MDL expression for identifier '__mdlvar_5' can not be evaluated due to previous errors.


Output and IC/nodeset summary:
                 probe  20      
                 save   2       (current)
                 save   5       (voltage)

............

Notice from spectre at time = 698.083 ps during transient analysis `transient1-004_transient1', during task `MDLControl'.
    Found trapezoidal ringing on node VY:p.

.............

Notice from spectre at time = 835.005 ps during transient analysis `transient1-004_transient1', during task `MDLControl'.
    Found trapezoidal ringing on node VY:p.

................

Notice from spectre at time = 1.01 ns during transient analysis `transient1-004_transient1', during task `MDLControl'.
    Found trapezoidal ringing on node VY:p.

..................9.....

Notice from spectre at time = 1.38382 ns during transient analysis `transient1-004_transient1', during task `MDLControl'.
    Found trapezoidal ringing on node VY:p.

..................9.......

Notice from spectre at time = 1.5 ns during transient analysis `transient1-004_transient1', during task `MDLControl'.
    Found trapezoidal ringing on node VY:p.
        Further occurrences of this notice will be suppressed.

..................9..................8..................7..................6..................5..................4..................3..................2..................1..................0
Number of accepted tran steps =             555

Notice from spectre during transient analysis `transient1-004_transient1', during task `MDLControl'.
    Trapezoidal ringing is detected during tran analysis.
        Please use method=trap for better results and performance.


Maximum value achieved for any signal of each quantity: 
V: V(Z) = 710.9 mV
I: I(VX:p) = 36.15 uA
If your circuit contains signals of the same quantity that are vastly different in size (such as high voltage circuitry combined with low voltage control circuitry), you should consider specifying global option `bin_relref=yes'.

~~~~~~~~~~~~~~~~~~~~~~~~~~~~~~~~~
Post-Transient Simulation Summary
~~~~~~~~~~~~~~~~~~~~~~~~~~~~~~~~~
   -   To further speed up simulation, consider
          add ++aps on command line
~~~~~~~~~~~~~~~~~~~~~~~~~~~~~~~~~


During simulation, the CPU load for active processors is :
         0 (23.2 %)      1 (24.0 %)      2 (23.0 %)      3 (29.2 %)
        Total: 99.4%
Initial condition solution time: CPU = 423 us, elapsed = 425.1 us.
Intrinsic tran analysis time:    CPU = 78.495 ms, elapsed = 117.04 ms.
Total time required for tran analysis `transient1-004_transient1': CPU = 93.291 ms, elapsed = 131.9 ms.
Time accumulated: CPU = 604.744 ms, elapsed = 10.2326 s.
Peak resident memory used = 129 Mbytes.


Notice from spectre during task `MDLControl'.
    40 notices suppressed.

         MDL montecarlo: iteration = 4   ( 8.00% ) complete.

Warning from spectre.
    WARNING (CMI-2178): VSS: Terminals must not be connected together (to node `0').


*********************************************************************
Transient Analysis `transient1-005_transient1': time = (0 s -> 10 ns)
*********************************************************************

Opening the PSFXL file teste/inverter.raw/transient1-005_transient1.tran.tran ...

Notice from spectre during transient analysis `transient1-005_transient1', during task `MDLControl'.
    No outputs were found. Loosening output filter criterion to `allpub'.

DC simulation time: CPU = 263 us, elapsed = 272.989 us.
Important parameter values:
    start = 0 s
    outputstart = 0 s
    stop = 10 ns
    step = 10 ps
    maxstep = 200 ps
    ic = all
    useprevic = no
    skipdc = no
    reltol = 1e-03
    abstol(V) = 1 uV
    abstol(I) = 1 pA
    temp = -25 C
    tnom = 27 C
    tempeffects = all
    errpreset = moderate
    method = traponly
    lteratio = 3.5
    relref = sigglobal
    cmin = 0 F
    gmin = 1 pS


Error found by spectre during transient analysis `transient1-005_transient1', during task `MDLControl'.
    ERROR (SPECTRE-16045): Cz: Undefined parameter name `power'.
Warning from spectre during transient analysis `transient1-005_transient1', during task `MDLControl'.
    WARNING (MDL-1101): "inverter.sp" 48: MDL expression for identifier '__mdlvar_5' can not be evaluated due to previous errors.


Output and IC/nodeset summary:
                 probe  20      
                 save   2       (current)
                 save   5       (voltage)

............

Notice from spectre at time = 698.083 ps during transient analysis `transient1-005_transient1', during task `MDLControl'.
    Found trapezoidal ringing on node VY:p.

.............

Notice from spectre at time = 835.005 ps during transient analysis `transient1-005_transient1', during task `MDLControl'.
    Found trapezoidal ringing on node VY:p.

................

Notice from spectre at time = 1.01 ns during transient analysis `transient1-005_transient1', during task `MDLControl'.
    Found trapezoidal ringing on node VY:p.

..................9.....

Notice from spectre at time = 1.38382 ns during transient analysis `transient1-005_transient1', during task `MDLControl'.
    Found trapezoidal ringing on node VY:p.

..................9.......

Notice from spectre at time = 1.5 ns during transient analysis `transient1-005_transient1', during task `MDLControl'.
    Found trapezoidal ringing on node VY:p.
        Further occurrences of this notice will be suppressed.

..................9..................8..................7..................6..................5..................4..................3..................2..................1..................0
Number of accepted tran steps =             555

Notice from spectre during transient analysis `transient1-005_transient1', during task `MDLControl'.
    Trapezoidal ringing is detected during tran analysis.
        Please use method=trap for better results and performance.


Maximum value achieved for any signal of each quantity: 
V: V(Z) = 710.9 mV
I: I(VX:p) = 36.15 uA
If your circuit contains signals of the same quantity that are vastly different in size (such as high voltage circuitry combined with low voltage control circuitry), you should consider specifying global option `bin_relref=yes'.

~~~~~~~~~~~~~~~~~~~~~~~~~~~~~~~~~
Post-Transient Simulation Summary
~~~~~~~~~~~~~~~~~~~~~~~~~~~~~~~~~
   -   To further speed up simulation, consider
          add ++aps on command line
~~~~~~~~~~~~~~~~~~~~~~~~~~~~~~~~~


During simulation, the CPU load for active processors is :
         0 (24.6 %)      1 (25.3 %)      2 (24.5 %)      3 (30.6 %)
        Total: 105.0%
Initial condition solution time: CPU = 345 us, elapsed = 355.005 us.
Intrinsic tran analysis time:    CPU = 79.071 ms, elapsed = 150.847 ms.
Total time required for tran analysis `transient1-005_transient1': CPU = 90.525 ms, elapsed = 162.374 ms.
Time accumulated: CPU = 698.706 ms, elapsed = 10.4388 s.
Peak resident memory used = 129 Mbytes.


Notice from spectre during task `MDLControl'.
    40 notices suppressed.

         MDL montecarlo: iteration = 5   ( 10.00% ) complete.

Warning from spectre.
    WARNING (CMI-2178): VSS: Terminals must not be connected together (to node `0').


*********************************************************************
Transient Analysis `transient1-006_transient1': time = (0 s -> 10 ns)
*********************************************************************

Opening the PSFXL file teste/inverter.raw/transient1-006_transient1.tran.tran ...

Notice from spectre during transient analysis `transient1-006_transient1', during task `MDLControl'.
    No outputs were found. Loosening output filter criterion to `allpub'.

DC simulation time: CPU = 324 us, elapsed = 325.918 us.
Important parameter values:
    start = 0 s
    outputstart = 0 s
    stop = 10 ns
    step = 10 ps
    maxstep = 200 ps
    ic = all
    useprevic = no
    skipdc = no
    reltol = 1e-03
    abstol(V) = 1 uV
    abstol(I) = 1 pA
    temp = -25 C
    tnom = 27 C
    tempeffects = all
    errpreset = moderate
    method = traponly
    lteratio = 3.5
    relref = sigglobal
    cmin = 0 F
    gmin = 1 pS


Error found by spectre during transient analysis `transient1-006_transient1', during task `MDLControl'.
    ERROR (SPECTRE-16045): Cz: Undefined parameter name `power'.
Warning from spectre during transient analysis `transient1-006_transient1', during task `MDLControl'.
    WARNING (MDL-1101): "inverter.sp" 48: MDL expression for identifier '__mdlvar_5' can not be evaluated due to previous errors.


Output and IC/nodeset summary:
                 probe  20      
                 save   2       (current)
                 save   5       (voltage)

............

Notice from spectre at time = 698.083 ps during transient analysis `transient1-006_transient1', during task `MDLControl'.
    Found trapezoidal ringing on node VY:p.

.............

Notice from spectre at time = 835.005 ps during transient analysis `transient1-006_transient1', during task `MDLControl'.
    Found trapezoidal ringing on node VY:p.

................

Notice from spectre at time = 1.01 ns during transient analysis `transient1-006_transient1', during task `MDLControl'.
    Found trapezoidal ringing on node VY:p.

..................9.....

Notice from spectre at time = 1.38382 ns during transient analysis `transient1-006_transient1', during task `MDLControl'.
    Found trapezoidal ringing on node VY:p.

..................9.......

Notice from spectre at time = 1.5 ns during transient analysis `transient1-006_transient1', during task `MDLControl'.
    Found trapezoidal ringing on node VY:p.
        Further occurrences of this notice will be suppressed.

..................9..................8..................7..................6..................5..................4..................3..................2..................1..................0
Number of accepted tran steps =             555

Notice from spectre during transient analysis `transient1-006_transient1', during task `MDLControl'.
    Trapezoidal ringing is detected during tran analysis.
        Please use method=trap for better results and performance.


Maximum value achieved for any signal of each quantity: 
V: V(Z) = 710.9 mV
I: I(VX:p) = 36.15 uA
If your circuit contains signals of the same quantity that are vastly different in size (such as high voltage circuitry combined with low voltage control circuitry), you should consider specifying global option `bin_relref=yes'.

~~~~~~~~~~~~~~~~~~~~~~~~~~~~~~~~~
Post-Transient Simulation Summary
~~~~~~~~~~~~~~~~~~~~~~~~~~~~~~~~~
   -   To further speed up simulation, consider
          add ++aps on command line
~~~~~~~~~~~~~~~~~~~~~~~~~~~~~~~~~


During simulation, the CPU load for active processors is :
         0 (26.0 %)      1 (26.7 %)      2 (26.0 %)      3 (31.9 %)
        Total: 110.6%
Initial condition solution time: CPU = 410 us, elapsed = 413.179 us.
Intrinsic tran analysis time:    CPU = 75.964 ms, elapsed = 124.91 ms.
Total time required for tran analysis `transient1-006_transient1': CPU = 89.639 ms, elapsed = 162.117 ms.
Time accumulated: CPU = 791.491 ms, elapsed = 10.6709 s.
Peak resident memory used = 129 Mbytes.


Notice from spectre during task `MDLControl'.
    40 notices suppressed.

         MDL montecarlo: iteration = 6   ( 12.00% ) complete.

Warning from spectre.
    WARNING (CMI-2178): VSS: Terminals must not be connected together (to node `0').


*********************************************************************
Transient Analysis `transient1-007_transient1': time = (0 s -> 10 ns)
*********************************************************************

Opening the PSFXL file teste/inverter.raw/transient1-007_transient1.tran.tran ...

Notice from spectre during transient analysis `transient1-007_transient1', during task `MDLControl'.
    No outputs were found. Loosening output filter criterion to `allpub'.

DC simulation time: CPU = 330 us, elapsed = 332.832 us.
Important parameter values:
    start = 0 s
    outputstart = 0 s
    stop = 10 ns
    step = 10 ps
    maxstep = 200 ps
    ic = all
    useprevic = no
    skipdc = no
    reltol = 1e-03
    abstol(V) = 1 uV
    abstol(I) = 1 pA
    temp = -25 C
    tnom = 27 C
    tempeffects = all
    errpreset = moderate
    method = traponly
    lteratio = 3.5
    relref = sigglobal
    cmin = 0 F
    gmin = 1 pS


Error found by spectre during transient analysis `transient1-007_transient1', during task `MDLControl'.
    ERROR (SPECTRE-16045): Cz: Undefined parameter name `power'.
Warning from spectre during transient analysis `transient1-007_transient1', during task `MDLControl'.
    WARNING (MDL-1101): "inverter.sp" 48: MDL expression for identifier '__mdlvar_5' can not be evaluated due to previous errors.


Output and IC/nodeset summary:
                 probe  20      
                 save   2       (current)
                 save   5       (voltage)

............

Notice from spectre at time = 698.083 ps during transient analysis `transient1-007_transient1', during task `MDLControl'.
    Found trapezoidal ringing on node VY:p.

.............

Notice from spectre at time = 835.005 ps during transient analysis `transient1-007_transient1', during task `MDLControl'.
    Found trapezoidal ringing on node VY:p.

................

Notice from spectre at time = 1.01 ns during transient analysis `transient1-007_transient1', during task `MDLControl'.
    Found trapezoidal ringing on node VY:p.

..................9.....

Notice from spectre at time = 1.38382 ns during transient analysis `transient1-007_transient1', during task `MDLControl'.
    Found trapezoidal ringing on node VY:p.

..................9.......

Notice from spectre at time = 1.5 ns during transient analysis `transient1-007_transient1', during task `MDLControl'.
    Found trapezoidal ringing on node VY:p.
        Further occurrences of this notice will be suppressed.

..................9..................8..................7..................6..................5..................4..................3..................2..................1..................0
Number of accepted tran steps =             555

Notice from spectre during transient analysis `transient1-007_transient1', during task `MDLControl'.
    Trapezoidal ringing is detected during tran analysis.
        Please use method=trap for better results and performance.


Maximum value achieved for any signal of each quantity: 
V: V(Z) = 710.9 mV
I: I(VX:p) = 36.15 uA
If your circuit contains signals of the same quantity that are vastly different in size (such as high voltage circuitry combined with low voltage control circuitry), you should consider specifying global option `bin_relref=yes'.

~~~~~~~~~~~~~~~~~~~~~~~~~~~~~~~~~
Post-Transient Simulation Summary
~~~~~~~~~~~~~~~~~~~~~~~~~~~~~~~~~
   -   To further speed up simulation, consider
          add ++aps on command line
~~~~~~~~~~~~~~~~~~~~~~~~~~~~~~~~~


During simulation, the CPU load for active processors is :
         0 (27.1 %)      1 (27.9 %)      2 (27.1 %)      3 (33.0 %)
        Total: 115.1%
Initial condition solution time: CPU = 419 us, elapsed = 422.001 us.
Intrinsic tran analysis time:    CPU = 76.091 ms, elapsed = 116.135 ms.
Total time required for tran analysis `transient1-007_transient1': CPU = 91.172 ms, elapsed = 132.394 ms.
Time accumulated: CPU = 886.053 ms, elapsed = 10.8421 s.
Peak resident memory used = 129 Mbytes.


Notice from spectre during task `MDLControl'.
    40 notices suppressed.

         MDL montecarlo: iteration = 7   ( 14.00% ) complete.

Warning from spectre.
    WARNING (CMI-2178): VSS: Terminals must not be connected together (to node `0').


*********************************************************************
Transient Analysis `transient1-008_transient1': time = (0 s -> 10 ns)
*********************************************************************

Opening the PSFXL file teste/inverter.raw/transient1-008_transient1.tran.tran ...

Notice from spectre during transient analysis `transient1-008_transient1', during task `MDLControl'.
    No outputs were found. Loosening output filter criterion to `allpub'.

DC simulation time: CPU = 319 us, elapsed = 319.958 us.
Important parameter values:
    start = 0 s
    outputstart = 0 s
    stop = 10 ns
    step = 10 ps
    maxstep = 200 ps
    ic = all
    useprevic = no
    skipdc = no
    reltol = 1e-03
    abstol(V) = 1 uV
    abstol(I) = 1 pA
    temp = -25 C
    tnom = 27 C
    tempeffects = all
    errpreset = moderate
    method = traponly
    lteratio = 3.5
    relref = sigglobal
    cmin = 0 F
    gmin = 1 pS


Error found by spectre during transient analysis `transient1-008_transient1', during task `MDLControl'.
    ERROR (SPECTRE-16045): Cz: Undefined parameter name `power'.
Warning from spectre during transient analysis `transient1-008_transient1', during task `MDLControl'.
    WARNING (MDL-1101): "inverter.sp" 48: MDL expression for identifier '__mdlvar_5' can not be evaluated due to previous errors.


Output and IC/nodeset summary:
                 probe  20      
                 save   2       (current)
                 save   5       (voltage)

............

Notice from spectre at time = 698.083 ps during transient analysis `transient1-008_transient1', during task `MDLControl'.
    Found trapezoidal ringing on node VY:p.

.............

Notice from spectre at time = 835.005 ps during transient analysis `transient1-008_transient1', during task `MDLControl'.
    Found trapezoidal ringing on node VY:p.

................

Notice from spectre at time = 1.01 ns during transient analysis `transient1-008_transient1', during task `MDLControl'.
    Found trapezoidal ringing on node VY:p.

..................9.....

Notice from spectre at time = 1.38382 ns during transient analysis `transient1-008_transient1', during task `MDLControl'.
    Found trapezoidal ringing on node VY:p.

..................9.......

Notice from spectre at time = 1.5 ns during transient analysis `transient1-008_transient1', during task `MDLControl'.
    Found trapezoidal ringing on node VY:p.
        Further occurrences of this notice will be suppressed.

..................9..................8..................7..................6..................5..................4..................3..................2..................1..................0
Number of accepted tran steps =             555

Notice from spectre during transient analysis `transient1-008_transient1', during task `MDLControl'.
    Trapezoidal ringing is detected during tran analysis.
        Please use method=trap for better results and performance.


Maximum value achieved for any signal of each quantity: 
V: V(Z) = 710.9 mV
I: I(VX:p) = 36.15 uA
If your circuit contains signals of the same quantity that are vastly different in size (such as high voltage circuitry combined with low voltage control circuitry), you should consider specifying global option `bin_relref=yes'.

~~~~~~~~~~~~~~~~~~~~~~~~~~~~~~~~~
Post-Transient Simulation Summary
~~~~~~~~~~~~~~~~~~~~~~~~~~~~~~~~~
   -   To further speed up simulation, consider
          add ++aps on command line
~~~~~~~~~~~~~~~~~~~~~~~~~~~~~~~~~


During simulation, the CPU load for active processors is :
         0 (28.2 %)      1 (28.9 %)      2 (28.2 %)      3 (34.1 %)
        Total: 119.4%
Initial condition solution time: CPU = 408 us, elapsed = 410.08 us.
Intrinsic tran analysis time:    CPU = 78.97 ms, elapsed = 124.366 ms.
Total time required for tran analysis `transient1-008_transient1': CPU = 93.529 ms, elapsed = 139.015 ms.
Time accumulated: CPU = 983.146 ms, elapsed = 11.0152 s.
Peak resident memory used = 129 Mbytes.


Notice from spectre during task `MDLControl'.
    40 notices suppressed.

         MDL montecarlo: iteration = 8   ( 16.00% ) complete.

Warning from spectre.
    WARNING (CMI-2178): VSS: Terminals must not be connected together (to node `0').


*********************************************************************
Transient Analysis `transient1-009_transient1': time = (0 s -> 10 ns)
*********************************************************************

Opening the PSFXL file teste/inverter.raw/transient1-009_transient1.tran.tran ...

Notice from spectre during transient analysis `transient1-009_transient1', during task `MDLControl'.
    No outputs were found. Loosening output filter criterion to `allpub'.

DC simulation time: CPU = 270 us, elapsed = 270.128 us.
Important parameter values:
    start = 0 s
    outputstart = 0 s
    stop = 10 ns
    step = 10 ps
    maxstep = 200 ps
    ic = all
    useprevic = no
    skipdc = no
    reltol = 1e-03
    abstol(V) = 1 uV
    abstol(I) = 1 pA
    temp = -25 C
    tnom = 27 C
    tempeffects = all
    errpreset = moderate
    method = traponly
    lteratio = 3.5
    relref = sigglobal
    cmin = 0 F
    gmin = 1 pS


Error found by spectre during transient analysis `transient1-009_transient1', during task `MDLControl'.
    ERROR (SPECTRE-16045): Cz: Undefined parameter name `power'.
Warning from spectre during transient analysis `transient1-009_transient1', during task `MDLControl'.
    WARNING (MDL-1101): "inverter.sp" 48: MDL expression for identifier '__mdlvar_5' can not be evaluated due to previous errors.


Output and IC/nodeset summary:
                 probe  20      
                 save   2       (current)
                 save   5       (voltage)

............

Notice from spectre at time = 698.083 ps during transient analysis `transient1-009_transient1', during task `MDLControl'.
    Found trapezoidal ringing on node VY:p.

.............

Notice from spectre at time = 835.005 ps during transient analysis `transient1-009_transient1', during task `MDLControl'.
    Found trapezoidal ringing on node VY:p.

................

Notice from spectre at time = 1.01 ns during transient analysis `transient1-009_transient1', during task `MDLControl'.
    Found trapezoidal ringing on node VY:p.

..................9.....

Notice from spectre at time = 1.38382 ns during transient analysis `transient1-009_transient1', during task `MDLControl'.
    Found trapezoidal ringing on node VY:p.

..................9.......

Notice from spectre at time = 1.5 ns during transient analysis `transient1-009_transient1', during task `MDLControl'.
    Found trapezoidal ringing on node VY:p.
        Further occurrences of this notice will be suppressed.

..................9..................8..................7..................6..................5..................4..................3..................2..................1..................0
Number of accepted tran steps =             555

Notice from spectre during transient analysis `transient1-009_transient1', during task `MDLControl'.
    Trapezoidal ringing is detected during tran analysis.
        Please use method=trap for better results and performance.


Maximum value achieved for any signal of each quantity: 
V: V(Z) = 710.9 mV
I: I(VX:p) = 36.15 uA
If your circuit contains signals of the same quantity that are vastly different in size (such as high voltage circuitry combined with low voltage control circuitry), you should consider specifying global option `bin_relref=yes'.

~~~~~~~~~~~~~~~~~~~~~~~~~~~~~~~~~
Post-Transient Simulation Summary
~~~~~~~~~~~~~~~~~~~~~~~~~~~~~~~~~
   -   To further speed up simulation, consider
          add ++aps on command line
~~~~~~~~~~~~~~~~~~~~~~~~~~~~~~~~~


During simulation, the CPU load for active processors is :
         0 (28.9 %)      1 (29.8 %)      2 (28.9 %)      3 (35.0 %)
        Total: 122.6%
Initial condition solution time: CPU = 323 us, elapsed = 324.011 us.
Intrinsic tran analysis time:    CPU = 72.879 ms, elapsed = 104.977 ms.
Total time required for tran analysis `transient1-009_transient1': CPU = 84.652 ms, elapsed = 116.834 ms.
Time accumulated: CPU = 1.07086 s, elapsed = 11.1741 s.
Peak resident memory used = 129 Mbytes.


Notice from spectre during task `MDLControl'.
    40 notices suppressed.

         MDL montecarlo: iteration = 9   ( 18.00% ) complete.

Warning from spectre.
    WARNING (CMI-2178): VSS: Terminals must not be connected together (to node `0').


*********************************************************************
Transient Analysis `transient1-010_transient1': time = (0 s -> 10 ns)
*********************************************************************

Opening the PSFXL file teste/inverter.raw/transient1-010_transient1.tran.tran ...

Notice from spectre during transient analysis `transient1-010_transient1', during task `MDLControl'.
    No outputs were found. Loosening output filter criterion to `allpub'.

DC simulation time: CPU = 305 us, elapsed = 307.083 us.
Important parameter values:
    start = 0 s
    outputstart = 0 s
    stop = 10 ns
    step = 10 ps
    maxstep = 200 ps
    ic = all
    useprevic = no
    skipdc = no
    reltol = 1e-03
    abstol(V) = 1 uV
    abstol(I) = 1 pA
    temp = -25 C
    tnom = 27 C
    tempeffects = all
    errpreset = moderate
    method = traponly
    lteratio = 3.5
    relref = sigglobal
    cmin = 0 F
    gmin = 1 pS


Error found by spectre during transient analysis `transient1-010_transient1', during task `MDLControl'.
    ERROR (SPECTRE-16045): Cz: Undefined parameter name `power'.
Warning from spectre during transient analysis `transient1-010_transient1', during task `MDLControl'.
    WARNING (MDL-1101): "inverter.sp" 48: MDL expression for identifier '__mdlvar_5' can not be evaluated due to previous errors.


Output and IC/nodeset summary:
                 probe  20      
                 save   2       (current)
                 save   5       (voltage)

............

Notice from spectre at time = 698.083 ps during transient analysis `transient1-010_transient1', during task `MDLControl'.
    Found trapezoidal ringing on node VY:p.

.............

Notice from spectre at time = 835.005 ps during transient analysis `transient1-010_transient1', during task `MDLControl'.
    Found trapezoidal ringing on node VY:p.

................

Notice from spectre at time = 1.01 ns during transient analysis `transient1-010_transient1', during task `MDLControl'.
    Found trapezoidal ringing on node VY:p.

..................9.....

Notice from spectre at time = 1.38382 ns during transient analysis `transient1-010_transient1', during task `MDLControl'.
    Found trapezoidal ringing on node VY:p.

..................9.......

Notice from spectre at time = 1.5 ns during transient analysis `transient1-010_transient1', during task `MDLControl'.
    Found trapezoidal ringing on node VY:p.
        Further occurrences of this notice will be suppressed.

..................9..................8..................7..................6..................5..................4..................3..................2..................1..................0
Number of accepted tran steps =             555

Notice from spectre during transient analysis `transient1-010_transient1', during task `MDLControl'.
    Trapezoidal ringing is detected during tran analysis.
        Please use method=trap for better results and performance.


Maximum value achieved for any signal of each quantity: 
V: V(Z) = 710.9 mV
I: I(VX:p) = 36.15 uA
If your circuit contains signals of the same quantity that are vastly different in size (such as high voltage circuitry combined with low voltage control circuitry), you should consider specifying global option `bin_relref=yes'.

~~~~~~~~~~~~~~~~~~~~~~~~~~~~~~~~~
Post-Transient Simulation Summary
~~~~~~~~~~~~~~~~~~~~~~~~~~~~~~~~~
   -   To further speed up simulation, consider
          add ++aps on command line
~~~~~~~~~~~~~~~~~~~~~~~~~~~~~~~~~


During simulation, the CPU load for active processors is :
         0 (29.9 %)      1 (30.7 %)      2 (30.0 %)      3 (35.7 %)
        Total: 126.3%
Initial condition solution time: CPU = 400 us, elapsed = 409.126 us.
Intrinsic tran analysis time:    CPU = 80.005 ms, elapsed = 117.93 ms.
Total time required for tran analysis `transient1-010_transient1': CPU = 93.387 ms, elapsed = 131.389 ms.
Time accumulated: CPU = 1.16763 s, elapsed = 11.3494 s.
Peak resident memory used = 129 Mbytes.


Notice from spectre during task `MDLControl'.
    40 notices suppressed.

         MDL montecarlo: iteration = 10   ( 20.00% ) complete.

Warning from spectre.
    WARNING (CMI-2178): VSS: Terminals must not be connected together (to node `0').


*********************************************************************
Transient Analysis `transient1-011_transient1': time = (0 s -> 10 ns)
*********************************************************************

Opening the PSFXL file teste/inverter.raw/transient1-011_transient1.tran.tran ...

Notice from spectre during transient analysis `transient1-011_transient1', during task `MDLControl'.
    No outputs were found. Loosening output filter criterion to `allpub'.

DC simulation time: CPU = 271 us, elapsed = 277.042 us.
Important parameter values:
    start = 0 s
    outputstart = 0 s
    stop = 10 ns
    step = 10 ps
    maxstep = 200 ps
    ic = all
    useprevic = no
    skipdc = no
    reltol = 1e-03
    abstol(V) = 1 uV
    abstol(I) = 1 pA
    temp = -25 C
    tnom = 27 C
    tempeffects = all
    errpreset = moderate
    method = traponly
    lteratio = 3.5
    relref = sigglobal
    cmin = 0 F
    gmin = 1 pS


Error found by spectre during transient analysis `transient1-011_transient1', during task `MDLControl'.
    ERROR (SPECTRE-16045): Cz: Undefined parameter name `power'.
Warning from spectre during transient analysis `transient1-011_transient1', during task `MDLControl'.
    WARNING (MDL-1101): "inverter.sp" 48: MDL expression for identifier '__mdlvar_5' can not be evaluated due to previous errors.


Output and IC/nodeset summary:
                 probe  20      
                 save   2       (current)
                 save   5       (voltage)

............

Notice from spectre at time = 698.083 ps during transient analysis `transient1-011_transient1', during task `MDLControl'.
    Found trapezoidal ringing on node VY:p.

.............

Notice from spectre at time = 835.005 ps during transient analysis `transient1-011_transient1', during task `MDLControl'.
    Found trapezoidal ringing on node VY:p.

................

Notice from spectre at time = 1.01 ns during transient analysis `transient1-011_transient1', during task `MDLControl'.
    Found trapezoidal ringing on node VY:p.

..................9.....

Notice from spectre at time = 1.38382 ns during transient analysis `transient1-011_transient1', during task `MDLControl'.
    Found trapezoidal ringing on node VY:p.

..................9.......

Notice from spectre at time = 1.5 ns during transient analysis `transient1-011_transient1', during task `MDLControl'.
    Found trapezoidal ringing on node VY:p.
        Further occurrences of this notice will be suppressed.

..................9..................8..................7..................6..................5..................4..................3..................2..................1..................0
Number of accepted tran steps =             555

Notice from spectre during transient analysis `transient1-011_transient1', during task `MDLControl'.
    Trapezoidal ringing is detected during tran analysis.
        Please use method=trap for better results and performance.


Maximum value achieved for any signal of each quantity: 
V: V(Z) = 710.9 mV
I: I(VX:p) = 36.15 uA
If your circuit contains signals of the same quantity that are vastly different in size (such as high voltage circuitry combined with low voltage control circuitry), you should consider specifying global option `bin_relref=yes'.

~~~~~~~~~~~~~~~~~~~~~~~~~~~~~~~~~
Post-Transient Simulation Summary
~~~~~~~~~~~~~~~~~~~~~~~~~~~~~~~~~
   -   To further speed up simulation, consider
          add ++aps on command line
~~~~~~~~~~~~~~~~~~~~~~~~~~~~~~~~~


During simulation, the CPU load for active processors is :
         0 (30.8 %)      1 (31.6 %)      2 (30.8 %)      3 (36.4 %)
        Total: 129.5%
Initial condition solution time: CPU = 331 us, elapsed = 338.078 us.
Intrinsic tran analysis time:    CPU = 77.781 ms, elapsed = 108.385 ms.
Total time required for tran analysis `transient1-011_transient1': CPU = 89.15 ms, elapsed = 119.941 ms.
Time accumulated: CPU = 1.25986 s, elapsed = 11.512 s.
Peak resident memory used = 129 Mbytes.


Notice from spectre during task `MDLControl'.
    40 notices suppressed.

         MDL montecarlo: iteration = 11   ( 22.00% ) complete.

Warning from spectre.
    WARNING (CMI-2178): VSS: Terminals must not be connected together (to node `0').


*********************************************************************
Transient Analysis `transient1-012_transient1': time = (0 s -> 10 ns)
*********************************************************************

Opening the PSFXL file teste/inverter.raw/transient1-012_transient1.tran.tran ...

Notice from spectre during transient analysis `transient1-012_transient1', during task `MDLControl'.
    No outputs were found. Loosening output filter criterion to `allpub'.

DC simulation time: CPU = 318 us, elapsed = 320.196 us.
Important parameter values:
    start = 0 s
    outputstart = 0 s
    stop = 10 ns
    step = 10 ps
    maxstep = 200 ps
    ic = all
    useprevic = no
    skipdc = no
    reltol = 1e-03
    abstol(V) = 1 uV
    abstol(I) = 1 pA
    temp = -25 C
    tnom = 27 C
    tempeffects = all
    errpreset = moderate
    method = traponly
    lteratio = 3.5
    relref = sigglobal
    cmin = 0 F
    gmin = 1 pS


Error found by spectre during transient analysis `transient1-012_transient1', during task `MDLControl'.
    ERROR (SPECTRE-16045): Cz: Undefined parameter name `power'.
Warning from spectre during transient analysis `transient1-012_transient1', during task `MDLControl'.
    WARNING (MDL-1101): "inverter.sp" 48: MDL expression for identifier '__mdlvar_5' can not be evaluated due to previous errors.


Output and IC/nodeset summary:
                 probe  20      
                 save   2       (current)
                 save   5       (voltage)

............

Notice from spectre at time = 698.083 ps during transient analysis `transient1-012_transient1', during task `MDLControl'.
    Found trapezoidal ringing on node VY:p.

.............

Notice from spectre at time = 835.005 ps during transient analysis `transient1-012_transient1', during task `MDLControl'.
    Found trapezoidal ringing on node VY:p.

................

Notice from spectre at time = 1.01 ns during transient analysis `transient1-012_transient1', during task `MDLControl'.
    Found trapezoidal ringing on node VY:p.

..................9.....

Notice from spectre at time = 1.38382 ns during transient analysis `transient1-012_transient1', during task `MDLControl'.
    Found trapezoidal ringing on node VY:p.

..................9.......

Notice from spectre at time = 1.5 ns during transient analysis `transient1-012_transient1', during task `MDLControl'.
    Found trapezoidal ringing on node VY:p.
        Further occurrences of this notice will be suppressed.

..................9..................8..................7..................6..................5..................4..................3..................2..................1..................0
Number of accepted tran steps =             555

Notice from spectre during transient analysis `transient1-012_transient1', during task `MDLControl'.
    Trapezoidal ringing is detected during tran analysis.
        Please use method=trap for better results and performance.


Maximum value achieved for any signal of each quantity: 
V: V(Z) = 710.9 mV
I: I(VX:p) = 36.15 uA
If your circuit contains signals of the same quantity that are vastly different in size (such as high voltage circuitry combined with low voltage control circuitry), you should consider specifying global option `bin_relref=yes'.

~~~~~~~~~~~~~~~~~~~~~~~~~~~~~~~~~
Post-Transient Simulation Summary
~~~~~~~~~~~~~~~~~~~~~~~~~~~~~~~~~
   -   To further speed up simulation, consider
          add ++aps on command line
~~~~~~~~~~~~~~~~~~~~~~~~~~~~~~~~~


During simulation, the CPU load for active processors is :
         0 (32.0 %)      1 (32.8 %)      2 (32.0 %)      3 (37.7 %)
        Total: 134.5%
Initial condition solution time: CPU = 399 us, elapsed = 401.974 us.
Intrinsic tran analysis time:    CPU = 76.645 ms, elapsed = 177.066 ms.
Total time required for tran analysis `transient1-012_transient1': CPU = 89.68 ms, elapsed = 190.745 ms.
Time accumulated: CPU = 1.3529 s, elapsed = 11.7421 s.
Peak resident memory used = 129 Mbytes.


Notice from spectre during task `MDLControl'.
    40 notices suppressed.

         MDL montecarlo: iteration = 12   ( 24.00% ) complete.

Warning from spectre.
    WARNING (CMI-2178): VSS: Terminals must not be connected together (to node `0').


*********************************************************************
Transient Analysis `transient1-013_transient1': time = (0 s -> 10 ns)
*********************************************************************

Opening the PSFXL file teste/inverter.raw/transient1-013_transient1.tran.tran ...

Notice from spectre during transient analysis `transient1-013_transient1', during task `MDLControl'.
    No outputs were found. Loosening output filter criterion to `allpub'.

DC simulation time: CPU = 310 us, elapsed = 311.136 us.
Important parameter values:
    start = 0 s
    outputstart = 0 s
    stop = 10 ns
    step = 10 ps
    maxstep = 200 ps
    ic = all
    useprevic = no
    skipdc = no
    reltol = 1e-03
    abstol(V) = 1 uV
    abstol(I) = 1 pA
    temp = -25 C
    tnom = 27 C
    tempeffects = all
    errpreset = moderate
    method = traponly
    lteratio = 3.5
    relref = sigglobal
    cmin = 0 F
    gmin = 1 pS


Error found by spectre during transient analysis `transient1-013_transient1', during task `MDLControl'.
    ERROR (SPECTRE-16045): Cz: Undefined parameter name `power'.
Warning from spectre during transient analysis `transient1-013_transient1', during task `MDLControl'.
    WARNING (MDL-1101): "inverter.sp" 48: MDL expression for identifier '__mdlvar_5' can not be evaluated due to previous errors.


Output and IC/nodeset summary:
                 probe  20      
                 save   2       (current)
                 save   5       (voltage)

............

Notice from spectre at time = 698.083 ps during transient analysis `transient1-013_transient1', during task `MDLControl'.
    Found trapezoidal ringing on node VY:p.

.............

Notice from spectre at time = 835.005 ps during transient analysis `transient1-013_transient1', during task `MDLControl'.
    Found trapezoidal ringing on node VY:p.

................

Notice from spectre at time = 1.01 ns during transient analysis `transient1-013_transient1', during task `MDLControl'.
    Found trapezoidal ringing on node VY:p.

..................9.....

Notice from spectre at time = 1.38382 ns during transient analysis `transient1-013_transient1', during task `MDLControl'.
    Found trapezoidal ringing on node VY:p.

..................9.......

Notice from spectre at time = 1.5 ns during transient analysis `transient1-013_transient1', during task `MDLControl'.
    Found trapezoidal ringing on node VY:p.
        Further occurrences of this notice will be suppressed.

..................9..................8..................7..................6..................5..................4..................3..................2..................1..................0
Number of accepted tran steps =             555

Notice from spectre during transient analysis `transient1-013_transient1', during task `MDLControl'.
    Trapezoidal ringing is detected during tran analysis.
        Please use method=trap for better results and performance.


Maximum value achieved for any signal of each quantity: 
V: V(Z) = 710.9 mV
I: I(VX:p) = 36.15 uA
If your circuit contains signals of the same quantity that are vastly different in size (such as high voltage circuitry combined with low voltage control circuitry), you should consider specifying global option `bin_relref=yes'.

~~~~~~~~~~~~~~~~~~~~~~~~~~~~~~~~~
Post-Transient Simulation Summary
~~~~~~~~~~~~~~~~~~~~~~~~~~~~~~~~~
   -   To further speed up simulation, consider
          add ++aps on command line
~~~~~~~~~~~~~~~~~~~~~~~~~~~~~~~~~


During simulation, the CPU load for active processors is :
         0 (32.9 %)      1 (33.7 %)      2 (33.0 %)      3 (38.5 %)
        Total: 138.1%
Initial condition solution time: CPU = 389 us, elapsed = 390.768 us.
Intrinsic tran analysis time:    CPU = 81.572 ms, elapsed = 137.343 ms.
Total time required for tran analysis `transient1-013_transient1': CPU = 95.952 ms, elapsed = 151.794 ms.
Time accumulated: CPU = 1.45223 s, elapsed = 11.923 s.
Peak resident memory used = 129 Mbytes.


Notice from spectre during task `MDLControl'.
    40 notices suppressed.

         MDL montecarlo: iteration = 13   ( 26.00% ) complete.

Warning from spectre.
    WARNING (CMI-2178): VSS: Terminals must not be connected together (to node `0').


*********************************************************************
Transient Analysis `transient1-014_transient1': time = (0 s -> 10 ns)
*********************************************************************

Opening the PSFXL file teste/inverter.raw/transient1-014_transient1.tran.tran ...

Notice from spectre during transient analysis `transient1-014_transient1', during task `MDLControl'.
    No outputs were found. Loosening output filter criterion to `allpub'.

DC simulation time: CPU = 301 us, elapsed = 303.03 us.
Important parameter values:
    start = 0 s
    outputstart = 0 s
    stop = 10 ns
    step = 10 ps
    maxstep = 200 ps
    ic = all
    useprevic = no
    skipdc = no
    reltol = 1e-03
    abstol(V) = 1 uV
    abstol(I) = 1 pA
    temp = -25 C
    tnom = 27 C
    tempeffects = all
    errpreset = moderate
    method = traponly
    lteratio = 3.5
    relref = sigglobal
    cmin = 0 F
    gmin = 1 pS


Error found by spectre during transient analysis `transient1-014_transient1', during task `MDLControl'.
    ERROR (SPECTRE-16045): Cz: Undefined parameter name `power'.
Warning from spectre during transient analysis `transient1-014_transient1', during task `MDLControl'.
    WARNING (MDL-1101): "inverter.sp" 48: MDL expression for identifier '__mdlvar_5' can not be evaluated due to previous errors.


Output and IC/nodeset summary:
                 probe  20      
                 save   2       (current)
                 save   5       (voltage)

............

Notice from spectre at time = 698.083 ps during transient analysis `transient1-014_transient1', during task `MDLControl'.
    Found trapezoidal ringing on node VY:p.

.............

Notice from spectre at time = 835.005 ps during transient analysis `transient1-014_transient1', during task `MDLControl'.
    Found trapezoidal ringing on node VY:p.

................

Notice from spectre at time = 1.01 ns during transient analysis `transient1-014_transient1', during task `MDLControl'.
    Found trapezoidal ringing on node VY:p.

..................9.....

Notice from spectre at time = 1.38382 ns during transient analysis `transient1-014_transient1', during task `MDLControl'.
    Found trapezoidal ringing on node VY:p.

..................9.......

Notice from spectre at time = 1.5 ns during transient analysis `transient1-014_transient1', during task `MDLControl'.
    Found trapezoidal ringing on node VY:p.
        Further occurrences of this notice will be suppressed.

..................9..................8..................7..................6..................5..................4..................3..................2..................1..................0
Number of accepted tran steps =             555

Notice from spectre during transient analysis `transient1-014_transient1', during task `MDLControl'.
    Trapezoidal ringing is detected during tran analysis.
        Please use method=trap for better results and performance.


Maximum value achieved for any signal of each quantity: 
V: V(Z) = 710.9 mV
I: I(VX:p) = 36.15 uA
If your circuit contains signals of the same quantity that are vastly different in size (such as high voltage circuitry combined with low voltage control circuitry), you should consider specifying global option `bin_relref=yes'.

~~~~~~~~~~~~~~~~~~~~~~~~~~~~~~~~~
Post-Transient Simulation Summary
~~~~~~~~~~~~~~~~~~~~~~~~~~~~~~~~~
   -   To further speed up simulation, consider
          add ++aps on command line
~~~~~~~~~~~~~~~~~~~~~~~~~~~~~~~~~


During simulation, the CPU load for active processors is :
         0 (33.6 %)      1 (34.6 %)      2 (33.8 %)      3 (39.2 %)
        Total: 141.2%
Initial condition solution time: CPU = 372 us, elapsed = 374.794 us.
Intrinsic tran analysis time:    CPU = 81.613 ms, elapsed = 114.103 ms.
Total time required for tran analysis `transient1-014_transient1': CPU = 95.93 ms, elapsed = 128.861 ms.
Time accumulated: CPU = 1.55161 s, elapsed = 12.0806 s.
Peak resident memory used = 129 Mbytes.


Notice from spectre during task `MDLControl'.
    40 notices suppressed.

         MDL montecarlo: iteration = 14   ( 28.00% ) complete.

Warning from spectre.
    WARNING (CMI-2178): VSS: Terminals must not be connected together (to node `0').


*********************************************************************
Transient Analysis `transient1-015_transient1': time = (0 s -> 10 ns)
*********************************************************************

Opening the PSFXL file teste/inverter.raw/transient1-015_transient1.tran.tran ...

Notice from spectre during transient analysis `transient1-015_transient1', during task `MDLControl'.
    No outputs were found. Loosening output filter criterion to `allpub'.

DC simulation time: CPU = 530 us, elapsed = 535.011 us.
Important parameter values:
    start = 0 s
    outputstart = 0 s
    stop = 10 ns
    step = 10 ps
    maxstep = 200 ps
    ic = all
    useprevic = no
    skipdc = no
    reltol = 1e-03
    abstol(V) = 1 uV
    abstol(I) = 1 pA
    temp = -25 C
    tnom = 27 C
    tempeffects = all
    errpreset = moderate
    method = traponly
    lteratio = 3.5
    relref = sigglobal
    cmin = 0 F
    gmin = 1 pS


Error found by spectre during transient analysis `transient1-015_transient1', during task `MDLControl'.
    ERROR (SPECTRE-16045): Cz: Undefined parameter name `power'.
Warning from spectre during transient analysis `transient1-015_transient1', during task `MDLControl'.
    WARNING (MDL-1101): "inverter.sp" 48: MDL expression for identifier '__mdlvar_5' can not be evaluated due to previous errors.


Output and IC/nodeset summary:
                 probe  20      
                 save   2       (current)
                 save   5       (voltage)

............

Notice from spectre at time = 698.083 ps during transient analysis `transient1-015_transient1', during task `MDLControl'.
    Found trapezoidal ringing on node VY:p.

.............

Notice from spectre at time = 835.005 ps during transient analysis `transient1-015_transient1', during task `MDLControl'.
    Found trapezoidal ringing on node VY:p.

................

Notice from spectre at time = 1.01 ns during transient analysis `transient1-015_transient1', during task `MDLControl'.
    Found trapezoidal ringing on node VY:p.

..................9.....

Notice from spectre at time = 1.38382 ns during transient analysis `transient1-015_transient1', during task `MDLControl'.
    Found trapezoidal ringing on node VY:p.

..................9.......

Notice from spectre at time = 1.5 ns during transient analysis `transient1-015_transient1', during task `MDLControl'.
    Found trapezoidal ringing on node VY:p.
        Further occurrences of this notice will be suppressed.

..................9..................8..................7..................6..................5..................4..................3..................2..................1..................0
Number of accepted tran steps =             555

Notice from spectre during transient analysis `transient1-015_transient1', during task `MDLControl'.
    Trapezoidal ringing is detected during tran analysis.
        Please use method=trap for better results and performance.


Maximum value achieved for any signal of each quantity: 
V: V(Z) = 710.9 mV
I: I(VX:p) = 36.15 uA
If your circuit contains signals of the same quantity that are vastly different in size (such as high voltage circuitry combined with low voltage control circuitry), you should consider specifying global option `bin_relref=yes'.

~~~~~~~~~~~~~~~~~~~~~~~~~~~~~~~~~
Post-Transient Simulation Summary
~~~~~~~~~~~~~~~~~~~~~~~~~~~~~~~~~
   -   To further speed up simulation, consider
          add ++aps on command line
~~~~~~~~~~~~~~~~~~~~~~~~~~~~~~~~~


During simulation, the CPU load for active processors is :
         0 (34.5 %)      1 (35.3 %)      2 (34.6 %)      3 (39.9 %)
        Total: 144.3%
Initial condition solution time: CPU = 679 us, elapsed = 681.877 us.
Intrinsic tran analysis time:    CPU = 76.241 ms, elapsed = 119.263 ms.
Total time required for tran analysis `transient1-015_transient1': CPU = 91.003 ms, elapsed = 134.36 ms.
Time accumulated: CPU = 1.64679 s, elapsed = 12.2454 s.
Peak resident memory used = 129 Mbytes.


Notice from spectre during task `MDLControl'.
    40 notices suppressed.

         MDL montecarlo: iteration = 15   ( 30.00% ) complete.

Warning from spectre.
    WARNING (CMI-2178): VSS: Terminals must not be connected together (to node `0').


*********************************************************************
Transient Analysis `transient1-016_transient1': time = (0 s -> 10 ns)
*********************************************************************

Opening the PSFXL file teste/inverter.raw/transient1-016_transient1.tran.tran ...

Notice from spectre during transient analysis `transient1-016_transient1', during task `MDLControl'.
    No outputs were found. Loosening output filter criterion to `allpub'.

DC simulation time: CPU = 305 us, elapsed = 305.891 us.
Important parameter values:
    start = 0 s
    outputstart = 0 s
    stop = 10 ns
    step = 10 ps
    maxstep = 200 ps
    ic = all
    useprevic = no
    skipdc = no
    reltol = 1e-03
    abstol(V) = 1 uV
    abstol(I) = 1 pA
    temp = -25 C
    tnom = 27 C
    tempeffects = all
    errpreset = moderate
    method = traponly
    lteratio = 3.5
    relref = sigglobal
    cmin = 0 F
    gmin = 1 pS


Error found by spectre during transient analysis `transient1-016_transient1', during task `MDLControl'.
    ERROR (SPECTRE-16045): Cz: Undefined parameter name `power'.
Warning from spectre during transient analysis `transient1-016_transient1', during task `MDLControl'.
    WARNING (MDL-1101): "inverter.sp" 48: MDL expression for identifier '__mdlvar_5' can not be evaluated due to previous errors.


Output and IC/nodeset summary:
                 probe  20      
                 save   2       (current)
                 save   5       (voltage)

............

Notice from spectre at time = 698.083 ps during transient analysis `transient1-016_transient1', during task `MDLControl'.
    Found trapezoidal ringing on node VY:p.

.............

Notice from spectre at time = 835.005 ps during transient analysis `transient1-016_transient1', during task `MDLControl'.
    Found trapezoidal ringing on node VY:p.

................

Notice from spectre at time = 1.01 ns during transient analysis `transient1-016_transient1', during task `MDLControl'.
    Found trapezoidal ringing on node VY:p.

..................9.....

Notice from spectre at time = 1.38382 ns during transient analysis `transient1-016_transient1', during task `MDLControl'.
    Found trapezoidal ringing on node VY:p.

..................9.......

Notice from spectre at time = 1.5 ns during transient analysis `transient1-016_transient1', during task `MDLControl'.
    Found trapezoidal ringing on node VY:p.
        Further occurrences of this notice will be suppressed.

..................9..................8..................7..................6..................5..................4..................3..................2..................1..................0
Number of accepted tran steps =             555

Notice from spectre during transient analysis `transient1-016_transient1', during task `MDLControl'.
    Trapezoidal ringing is detected during tran analysis.
        Please use method=trap for better results and performance.


Maximum value achieved for any signal of each quantity: 
V: V(Z) = 710.9 mV
I: I(VX:p) = 36.15 uA
If your circuit contains signals of the same quantity that are vastly different in size (such as high voltage circuitry combined with low voltage control circuitry), you should consider specifying global option `bin_relref=yes'.

~~~~~~~~~~~~~~~~~~~~~~~~~~~~~~~~~
Post-Transient Simulation Summary
~~~~~~~~~~~~~~~~~~~~~~~~~~~~~~~~~
   -   To further speed up simulation, consider
          add ++aps on command line
~~~~~~~~~~~~~~~~~~~~~~~~~~~~~~~~~


During simulation, the CPU load for active processors is :
         0 (35.3 %)      1 (36.1 %)      2 (35.4 %)      3 (40.5 %)
        Total: 147.2%
Initial condition solution time: CPU = 374 us, elapsed = 375.986 us.
Intrinsic tran analysis time:    CPU = 75.123 ms, elapsed = 113.323 ms.
Total time required for tran analysis `transient1-016_transient1': CPU = 89.316 ms, elapsed = 127.628 ms.
Time accumulated: CPU = 1.73954 s, elapsed = 12.405 s.
Peak resident memory used = 129 Mbytes.


Notice from spectre during task `MDLControl'.
    40 notices suppressed.

         MDL montecarlo: iteration = 16   ( 32.00% ) complete.

Warning from spectre.
    WARNING (CMI-2178): VSS: Terminals must not be connected together (to node `0').


*********************************************************************
Transient Analysis `transient1-017_transient1': time = (0 s -> 10 ns)
*********************************************************************

Opening the PSFXL file teste/inverter.raw/transient1-017_transient1.tran.tran ...

Notice from spectre during transient analysis `transient1-017_transient1', during task `MDLControl'.
    No outputs were found. Loosening output filter criterion to `allpub'.

DC simulation time: CPU = 277 us, elapsed = 277.996 us.
Important parameter values:
    start = 0 s
    outputstart = 0 s
    stop = 10 ns
    step = 10 ps
    maxstep = 200 ps
    ic = all
    useprevic = no
    skipdc = no
    reltol = 1e-03
    abstol(V) = 1 uV
    abstol(I) = 1 pA
    temp = -25 C
    tnom = 27 C
    tempeffects = all
    errpreset = moderate
    method = traponly
    lteratio = 3.5
    relref = sigglobal
    cmin = 0 F
    gmin = 1 pS


Error found by spectre during transient analysis `transient1-017_transient1', during task `MDLControl'.
    ERROR (SPECTRE-16045): Cz: Undefined parameter name `power'.
Warning from spectre during transient analysis `transient1-017_transient1', during task `MDLControl'.
    WARNING (MDL-1101): "inverter.sp" 48: MDL expression for identifier '__mdlvar_5' can not be evaluated due to previous errors.


Output and IC/nodeset summary:
                 probe  20      
                 save   2       (current)
                 save   5       (voltage)

............

Notice from spectre at time = 698.083 ps during transient analysis `transient1-017_transient1', during task `MDLControl'.
    Found trapezoidal ringing on node VY:p.

.............

Notice from spectre at time = 835.005 ps during transient analysis `transient1-017_transient1', during task `MDLControl'.
    Found trapezoidal ringing on node VY:p.

................

Notice from spectre at time = 1.01 ns during transient analysis `transient1-017_transient1', during task `MDLControl'.
    Found trapezoidal ringing on node VY:p.

..................9.....

Notice from spectre at time = 1.38382 ns during transient analysis `transient1-017_transient1', during task `MDLControl'.
    Found trapezoidal ringing on node VY:p.

..................9.......

Notice from spectre at time = 1.5 ns during transient analysis `transient1-017_transient1', during task `MDLControl'.
    Found trapezoidal ringing on node VY:p.
        Further occurrences of this notice will be suppressed.

..................9..................8..................7..................6..................5..................4..................3..................2..................1..................0
Number of accepted tran steps =             555

Notice from spectre during transient analysis `transient1-017_transient1', during task `MDLControl'.
    Trapezoidal ringing is detected during tran analysis.
        Please use method=trap for better results and performance.


Maximum value achieved for any signal of each quantity: 
V: V(Z) = 710.9 mV
I: I(VX:p) = 36.15 uA
If your circuit contains signals of the same quantity that are vastly different in size (such as high voltage circuitry combined with low voltage control circuitry), you should consider specifying global option `bin_relref=yes'.

~~~~~~~~~~~~~~~~~~~~~~~~~~~~~~~~~
Post-Transient Simulation Summary
~~~~~~~~~~~~~~~~~~~~~~~~~~~~~~~~~
   -   To further speed up simulation, consider
          add ++aps on command line
~~~~~~~~~~~~~~~~~~~~~~~~~~~~~~~~~


During simulation, the CPU load for active processors is :
         0 (36.0 %)      1 (36.7 %)      2 (36.1 %)      3 (41.1 %)
        Total: 150.1%
Initial condition solution time: CPU = 340 us, elapsed = 343.084 us.
Intrinsic tran analysis time:    CPU = 75.883 ms, elapsed = 115.769 ms.
Total time required for tran analysis `transient1-017_transient1': CPU = 87.208 ms, elapsed = 127.159 ms.
Time accumulated: CPU = 1.83 s, elapsed = 12.5625 s.
Peak resident memory used = 129 Mbytes.


Notice from spectre during task `MDLControl'.
    40 notices suppressed.

         MDL montecarlo: iteration = 17   ( 34.00% ) complete.

Warning from spectre.
    WARNING (CMI-2178): VSS: Terminals must not be connected together (to node `0').


*********************************************************************
Transient Analysis `transient1-018_transient1': time = (0 s -> 10 ns)
*********************************************************************

Opening the PSFXL file teste/inverter.raw/transient1-018_transient1.tran.tran ...

Notice from spectre during transient analysis `transient1-018_transient1', during task `MDLControl'.
    No outputs were found. Loosening output filter criterion to `allpub'.

DC simulation time: CPU = 316 us, elapsed = 319.004 us.
Important parameter values:
    start = 0 s
    outputstart = 0 s
    stop = 10 ns
    step = 10 ps
    maxstep = 200 ps
    ic = all
    useprevic = no
    skipdc = no
    reltol = 1e-03
    abstol(V) = 1 uV
    abstol(I) = 1 pA
    temp = -25 C
    tnom = 27 C
    tempeffects = all
    errpreset = moderate
    method = traponly
    lteratio = 3.5
    relref = sigglobal
    cmin = 0 F
    gmin = 1 pS


Error found by spectre during transient analysis `transient1-018_transient1', during task `MDLControl'.
    ERROR (SPECTRE-16045): Cz: Undefined parameter name `power'.
Warning from spectre during transient analysis `transient1-018_transient1', during task `MDLControl'.
    WARNING (MDL-1101): "inverter.sp" 48: MDL expression for identifier '__mdlvar_5' can not be evaluated due to previous errors.


Output and IC/nodeset summary:
                 probe  20      
                 save   2       (current)
                 save   5       (voltage)

............

Notice from spectre at time = 698.083 ps during transient analysis `transient1-018_transient1', during task `MDLControl'.
    Found trapezoidal ringing on node VY:p.

.............

Notice from spectre at time = 835.005 ps during transient analysis `transient1-018_transient1', during task `MDLControl'.
    Found trapezoidal ringing on node VY:p.

................

Notice from spectre at time = 1.01 ns during transient analysis `transient1-018_transient1', during task `MDLControl'.
    Found trapezoidal ringing on node VY:p.

..................9.....

Notice from spectre at time = 1.38382 ns during transient analysis `transient1-018_transient1', during task `MDLControl'.
    Found trapezoidal ringing on node VY:p.

..................9.......

Notice from spectre at time = 1.5 ns during transient analysis `transient1-018_transient1', during task `MDLControl'.
    Found trapezoidal ringing on node VY:p.
        Further occurrences of this notice will be suppressed.

..................9..................8..................7..................6..................5..................4..................3..................2..................1..................0
Number of accepted tran steps =             555

Notice from spectre during transient analysis `transient1-018_transient1', during task `MDLControl'.
    Trapezoidal ringing is detected during tran analysis.
        Please use method=trap for better results and performance.


Maximum value achieved for any signal of each quantity: 
V: V(Z) = 710.9 mV
I: I(VX:p) = 36.15 uA
If your circuit contains signals of the same quantity that are vastly different in size (such as high voltage circuitry combined with low voltage control circuitry), you should consider specifying global option `bin_relref=yes'.

~~~~~~~~~~~~~~~~~~~~~~~~~~~~~~~~~
Post-Transient Simulation Summary
~~~~~~~~~~~~~~~~~~~~~~~~~~~~~~~~~
[...]
    Found trapezoidal ringing on node VY:p.
        Further occurrences of this notice will be suppressed.

..................9..................8..................7..................6..................5..................4..................3..................2..................1..................0
Number of accepted tran steps =             557

Notice from spectre during transient analysis `transient1-301_transient1', during task `MDLControl'.
    Trapezoidal ringing is detected during tran analysis.
        Please use method=trap for better results and performance.


Maximum value achieved for any signal of each quantity: 
V: V(Z) = 709 mV
I: I(VX:p) = 31.38 uA
If your circuit contains signals of the same quantity that are vastly different in size (such as high voltage circuitry combined with low voltage control circuitry), you should consider specifying global option `bin_relref=yes'.

~~~~~~~~~~~~~~~~~~~~~~~~~~~~~~~~~
Post-Transient Simulation Summary
~~~~~~~~~~~~~~~~~~~~~~~~~~~~~~~~~
   -   To further speed up simulation, consider
          add ++aps on command line
~~~~~~~~~~~~~~~~~~~~~~~~~~~~~~~~~


During simulation, the CPU load for active processors is :
         0 (80.9 %)      1 (80.9 %)      2 (80.8 %)      3 (81.9 %)
        Total: 324.5%
Initial condition solution time: CPU = 393 us, elapsed = 394.821 us.
Intrinsic tran analysis time:    CPU = 81.92 ms, elapsed = 125.675 ms.
Total time required for tran analysis `transient1-301_transient1': CPU = 94.545 ms, elapsed = 138.407 ms.
Time accumulated: CPU = 28.4843 s, elapsed = 63.664 s (1m  3.7s).
Peak resident memory used = 133 Mbytes.


Notice from spectre during task `MDLControl'.
    25 notices suppressed.

         MDL montecarlo: iteration = 46   ( 92.00% ) complete.

Warning from spectre.
    WARNING (CMI-2178): VSS: Terminals must not be connected together (to node `0').


*********************************************************************
Transient Analysis `transient1-302_transient1': time = (0 s -> 10 ns)
*********************************************************************

Opening the PSFXL file teste/inverter.raw/transient1-302_transient1.tran.tran ...

Notice from spectre during transient analysis `transient1-302_transient1', during task `MDLControl'.
    No outputs were found. Loosening output filter criterion to `allpub'.

DC simulation time: CPU = 280 us, elapsed = 279.903 us.
Important parameter values:
    start = 0 s
    outputstart = 0 s
    stop = 10 ns
    step = 10 ps
    maxstep = 200 ps
    ic = all
    useprevic = no
    skipdc = no
    reltol = 1e-03
    abstol(V) = 1 uV
    abstol(I) = 1 pA
    temp = 100 C
    tnom = 27 C
    tempeffects = all
    errpreset = moderate
    method = traponly
    lteratio = 3.5
    relref = sigglobal
    cmin = 0 F
    gmin = 1 pS


Error found by spectre during transient analysis `transient1-302_transient1', during task `MDLControl'.
    ERROR (SPECTRE-16045): Cz: Undefined parameter name `power'.
Warning from spectre during transient analysis `transient1-302_transient1', during task `MDLControl'.
    WARNING (MDL-1101): "inverter.sp" 48: MDL expression for identifier '__mdlvar_5' can not be evaluated due to previous errors.


Output and IC/nodeset summary:
                 probe  20      
                 save   2       (current)
                 save   5       (voltage)

.............

Notice from spectre at time = 796.499 ps during transient analysis `transient1-302_transient1', during task `MDLControl'.
    Found trapezoidal ringing on node VY:p.

...............

Notice from spectre at time = 903.249 ps during transient analysis `transient1-302_transient1', during task `MDLControl'.
    Found trapezoidal ringing on node VY:p.

.................

Notice from spectre at time = 1.01 ns during transient analysis `transient1-302_transient1', during task `MDLControl'.
    Found trapezoidal ringing on node VY:p.

..................9......

Notice from spectre at time = 1.5 ns during transient analysis `transient1-302_transient1', during task `MDLControl'.
    Found trapezoidal ringing on node VY:p.

..................9...............

Notice from spectre at time = 1.88858 ns during transient analysis `transient1-302_transient1', during task `MDLControl'.
    Found trapezoidal ringing on node VY:p.
        Further occurrences of this notice will be suppressed.

..................9..................8..................7..................6..................5..................4..................3..................2..................1..................0
Number of accepted tran steps =             557

Notice from spectre during transient analysis `transient1-302_transient1', during task `MDLControl'.
    Trapezoidal ringing is detected during tran analysis.
        Please use method=trap for better results and performance.


Maximum value achieved for any signal of each quantity: 
V: V(Z) = 709 mV
I: I(VX:p) = 31.38 uA
If your circuit contains signals of the same quantity that are vastly different in size (such as high voltage circuitry combined with low voltage control circuitry), you should consider specifying global option `bin_relref=yes'.

~~~~~~~~~~~~~~~~~~~~~~~~~~~~~~~~~
Post-Transient Simulation Summary
~~~~~~~~~~~~~~~~~~~~~~~~~~~~~~~~~
   -   To further speed up simulation, consider
          add ++aps on command line
~~~~~~~~~~~~~~~~~~~~~~~~~~~~~~~~~


During simulation, the CPU load for active processors is :
         0 (80.9 %)      1 (81.0 %)      2 (80.8 %)      3 (81.9 %)
        Total: 324.6%
Initial condition solution time: CPU = 350 us, elapsed = 351.906 us.
Intrinsic tran analysis time:    CPU = 81.495 ms, elapsed = 112.196 ms.
Total time required for tran analysis `transient1-302_transient1': CPU = 94.099 ms, elapsed = 131.029 ms.
Time accumulated: CPU = 28.5826 s, elapsed = 63.8321 s (1m  3.8s).
Peak resident memory used = 133 Mbytes.


Notice from spectre during task `MDLControl'.
    25 notices suppressed.

         MDL montecarlo: iteration = 47   ( 94.00% ) complete.

Warning from spectre.
    WARNING (CMI-2178): VSS: Terminals must not be connected together (to node `0').


*********************************************************************
Transient Analysis `transient1-303_transient1': time = (0 s -> 10 ns)
*********************************************************************

Opening the PSFXL file teste/inverter.raw/transient1-303_transient1.tran.tran ...

Notice from spectre during transient analysis `transient1-303_transient1', during task `MDLControl'.
    No outputs were found. Loosening output filter criterion to `allpub'.

DC simulation time: CPU = 429 us, elapsed = 441.074 us.
Important parameter values:
    start = 0 s
    outputstart = 0 s
    stop = 10 ns
    step = 10 ps
    maxstep = 200 ps
    ic = all
    useprevic = no
    skipdc = no
    reltol = 1e-03
    abstol(V) = 1 uV
    abstol(I) = 1 pA
    temp = 100 C
    tnom = 27 C
    tempeffects = all
    errpreset = moderate
    method = traponly
    lteratio = 3.5
    relref = sigglobal
    cmin = 0 F
    gmin = 1 pS


Error found by spectre during transient analysis `transient1-303_transient1', during task `MDLControl'.
    ERROR (SPECTRE-16045): Cz: Undefined parameter name `power'.
Warning from spectre during transient analysis `transient1-303_transient1', during task `MDLControl'.
    WARNING (MDL-1101): "inverter.sp" 48: MDL expression for identifier '__mdlvar_5' can not be evaluated due to previous errors.


Output and IC/nodeset summary:
                 probe  20      
                 save   2       (current)
                 save   5       (voltage)

.............

Notice from spectre at time = 796.499 ps during transient analysis `transient1-303_transient1', during task `MDLControl'.
    Found trapezoidal ringing on node VY:p.

...............

Notice from spectre at time = 903.249 ps during transient analysis `transient1-303_transient1', during task `MDLControl'.
    Found trapezoidal ringing on node VY:p.

.................

Notice from spectre at time = 1.01 ns during transient analysis `transient1-303_transient1', during task `MDLControl'.
    Found trapezoidal ringing on node VY:p.

..................9......

Notice from spectre at time = 1.5 ns during transient analysis `transient1-303_transient1', during task `MDLControl'.
    Found trapezoidal ringing on node VY:p.

..................9...............

Notice from spectre at time = 1.88858 ns during transient analysis `transient1-303_transient1', during task `MDLControl'.
    Found trapezoidal ringing on node VY:p.
        Further occurrences of this notice will be suppressed.

..................9..................8..................7..................6..................5..................4..................3..................2..................1..................0
Number of accepted tran steps =             557

Notice from spectre during transient analysis `transient1-303_transient1', during task `MDLControl'.
    Trapezoidal ringing is detected during tran analysis.
        Please use method=trap for better results and performance.


Maximum value achieved for any signal of each quantity: 
V: V(Z) = 709 mV
I: I(VX:p) = 31.38 uA
If your circuit contains signals of the same quantity that are vastly different in size (such as high voltage circuitry combined with low voltage control circuitry), you should consider specifying global option `bin_relref=yes'.

~~~~~~~~~~~~~~~~~~~~~~~~~~~~~~~~~
Post-Transient Simulation Summary
~~~~~~~~~~~~~~~~~~~~~~~~~~~~~~~~~
   -   To further speed up simulation, consider
          add ++aps on command line
~~~~~~~~~~~~~~~~~~~~~~~~~~~~~~~~~


During simulation, the CPU load for active processors is :
         0 (81.0 %)      1 (81.0 %)      2 (80.8 %)      3 (81.9 %)
        Total: 324.7%
Initial condition solution time: CPU = 563 us, elapsed = 575.781 us.
Intrinsic tran analysis time:    CPU = 75.182 ms, elapsed = 112.614 ms.
Total time required for tran analysis `transient1-303_transient1': CPU = 90.245 ms, elapsed = 127.742 ms.
Time accumulated: CPU = 28.6764 s, elapsed = 63.9952 s (1m  4.0s).
Peak resident memory used = 133 Mbytes.


Notice from spectre during task `MDLControl'.
    25 notices suppressed.

         MDL montecarlo: iteration = 48   ( 96.00% ) complete.

Warning from spectre.
    WARNING (CMI-2178): VSS: Terminals must not be connected together (to node `0').


*********************************************************************
Transient Analysis `transient1-304_transient1': time = (0 s -> 10 ns)
*********************************************************************

Opening the PSFXL file teste/inverter.raw/transient1-304_transient1.tran.tran ...

Notice from spectre during transient analysis `transient1-304_transient1', during task `MDLControl'.
    No outputs were found. Loosening output filter criterion to `allpub'.

DC simulation time: CPU = 276 us, elapsed = 283.003 us.
Important parameter values:
    start = 0 s
    outputstart = 0 s
    stop = 10 ns
    step = 10 ps
    maxstep = 200 ps
    ic = all
    useprevic = no
    skipdc = no
    reltol = 1e-03
    abstol(V) = 1 uV
    abstol(I) = 1 pA
    temp = 100 C
    tnom = 27 C
    tempeffects = all
    errpreset = moderate
    method = traponly
    lteratio = 3.5
    relref = sigglobal
    cmin = 0 F
    gmin = 1 pS


Error found by spectre during transient analysis `transient1-304_transient1', during task `MDLControl'.
    ERROR (SPECTRE-16045): Cz: Undefined parameter name `power'.
Warning from spectre during transient analysis `transient1-304_transient1', during task `MDLControl'.
    WARNING (MDL-1101): "inverter.sp" 48: MDL expression for identifier '__mdlvar_5' can not be evaluated due to previous errors.


Output and IC/nodeset summary:
                 probe  20      
                 save   2       (current)
                 save   5       (voltage)

.............

Notice from spectre at time = 796.499 ps during transient analysis `transient1-304_transient1', during task `MDLControl'.
    Found trapezoidal ringing on node VY:p.

...............

Notice from spectre at time = 903.249 ps during transient analysis `transient1-304_transient1', during task `MDLControl'.
    Found trapezoidal ringing on node VY:p.

.................

Notice from spectre at time = 1.01 ns during transient analysis `transient1-304_transient1', during task `MDLControl'.
    Found trapezoidal ringing on node VY:p.

..................9......

Notice from spectre at time = 1.5 ns during transient analysis `transient1-304_transient1', during task `MDLControl'.
    Found trapezoidal ringing on node VY:p.

..................9...............

Notice from spectre at time = 1.88858 ns during transient analysis `transient1-304_transient1', during task `MDLControl'.
    Found trapezoidal ringing on node VY:p.
        Further occurrences of this notice will be suppressed.

..................9..................8..................7..................6..................5..................4..................3..................2..................1..................0
Number of accepted tran steps =             557

Notice from spectre during transient analysis `transient1-304_transient1', during task `MDLControl'.
    Trapezoidal ringing is detected during tran analysis.
        Please use method=trap for better results and performance.


Maximum value achieved for any signal of each quantity: 
V: V(Z) = 709 mV
I: I(VX:p) = 31.38 uA
If your circuit contains signals of the same quantity that are vastly different in size (such as high voltage circuitry combined with low voltage control circuitry), you should consider specifying global option `bin_relref=yes'.

~~~~~~~~~~~~~~~~~~~~~~~~~~~~~~~~~
Post-Transient Simulation Summary
~~~~~~~~~~~~~~~~~~~~~~~~~~~~~~~~~
   -   To further speed up simulation, consider
          add ++aps on command line
~~~~~~~~~~~~~~~~~~~~~~~~~~~~~~~~~


During simulation, the CPU load for active processors is :
         0 (81.0 %)      1 (81.0 %)      2 (80.9 %)      3 (82.0 %)
        Total: 324.8%
Initial condition solution time: CPU = 337 us, elapsed = 344.992 us.
Intrinsic tran analysis time:    CPU = 80.396 ms, elapsed = 119.752 ms.
Total time required for tran analysis `transient1-304_transient1': CPU = 92.754 ms, elapsed = 132.777 ms.
Time accumulated: CPU = 28.7724 s, elapsed = 64.1669 s (1m  4.2s).
Peak resident memory used = 133 Mbytes.


Notice from spectre during task `MDLControl'.
    25 notices suppressed.

         MDL montecarlo: iteration = 49   ( 98.00% ) complete.

Warning from spectre.
    WARNING (CMI-2178): VSS: Terminals must not be connected together (to node `0').


*********************************************************************
Transient Analysis `transient1-305_transient1': time = (0 s -> 10 ns)
*********************************************************************

Opening the PSFXL file teste/inverter.raw/transient1-305_transient1.tran.tran ...

Notice from spectre during transient analysis `transient1-305_transient1', during task `MDLControl'.
    No outputs were found. Loosening output filter criterion to `allpub'.

DC simulation time: CPU = 350 us, elapsed = 352.144 us.
Important parameter values:
    start = 0 s
    outputstart = 0 s
    stop = 10 ns
    step = 10 ps
    maxstep = 200 ps
    ic = all
    useprevic = no
    skipdc = no
    reltol = 1e-03
    abstol(V) = 1 uV
    abstol(I) = 1 pA
    temp = 100 C
    tnom = 27 C
    tempeffects = all
    errpreset = moderate
    method = traponly
    lteratio = 3.5
    relref = sigglobal
    cmin = 0 F
    gmin = 1 pS


Error found by spectre during transient analysis `transient1-305_transient1', during task `MDLControl'.
    ERROR (SPECTRE-16045): Cz: Undefined parameter name `power'.
Warning from spectre during transient analysis `transient1-305_transient1', during task `MDLControl'.
    WARNING (MDL-1101): "inverter.sp" 48: MDL expression for identifier '__mdlvar_5' can not be evaluated due to previous errors.


Output and IC/nodeset summary:
                 probe  20      
                 save   2       (current)
                 save   5       (voltage)

.............

Notice from spectre at time = 796.499 ps during transient analysis `transient1-305_transient1', during task `MDLControl'.
    Found trapezoidal ringing on node VY:p.

...............

Notice from spectre at time = 903.249 ps during transient analysis `transient1-305_transient1', during task `MDLControl'.
    Found trapezoidal ringing on node VY:p.

.................

Notice from spectre at time = 1.01 ns during transient analysis `transient1-305_transient1', during task `MDLControl'.
    Found trapezoidal ringing on node VY:p.

..................9......

Notice from spectre at time = 1.5 ns during transient analysis `transient1-305_transient1', during task `MDLControl'.
    Found trapezoidal ringing on node VY:p.

..................9...............

Notice from spectre at time = 1.88858 ns during transient analysis `transient1-305_transient1', during task `MDLControl'.
    Found trapezoidal ringing on node VY:p.
        Further occurrences of this notice will be suppressed.

..................9..................8..................7..................6..................5..................4..................3..................2..................1..................0
Number of accepted tran steps =             557

Notice from spectre during transient analysis `transient1-305_transient1', during task `MDLControl'.
    Trapezoidal ringing is detected during tran analysis.
        Please use method=trap for better results and performance.


Maximum value achieved for any signal of each quantity: 
V: V(Z) = 709 mV
I: I(VX:p) = 31.38 uA
If your circuit contains signals of the same quantity that are vastly different in size (such as high voltage circuitry combined with low voltage control circuitry), you should consider specifying global option `bin_relref=yes'.

~~~~~~~~~~~~~~~~~~~~~~~~~~~~~~~~~
Post-Transient Simulation Summary
~~~~~~~~~~~~~~~~~~~~~~~~~~~~~~~~~
   -   To further speed up simulation, consider
          add ++aps on command line
~~~~~~~~~~~~~~~~~~~~~~~~~~~~~~~~~


During simulation, the CPU load for active processors is :
         0 (81.0 %)      1 (81.1 %)      2 (80.9 %)      3 (82.0 %)
        Total: 325.0%
Initial condition solution time: CPU = 454 us, elapsed = 457.048 us.
Intrinsic tran analysis time:    CPU = 83.224 ms, elapsed = 132.262 ms.
Total time required for tran analysis `transient1-305_transient1': CPU = 98.119 ms, elapsed = 147.229 ms.
Time accumulated: CPU = 28.874 s, elapsed = 64.3485 s (1m  4.3s).
Peak resident memory used = 133 Mbytes.


Notice from spectre during task `MDLControl'.
    25 notices suppressed.

         MDL montecarlo: iteration = 50   ( 100.00% ) complete.

name            max             min             mean            stddev          skewness        
t_fall_delay    1.3498e-11      1.3498e-11      1.3498e-11      0               NaN             
t_fall_time     1.49211e-11     1.49211e-11     1.49211e-11     0               NaN             
t_rise_delay    1.64226e-11     1.64226e-11     1.64226e-11     0               NaN             
t_rise_time     2.00905e-11     2.00905e-11     2.00905e-11     0               NaN             


Warning from spectre.
    WARNING (CMI-2178): VSS: Terminals must not be connected together (to node `0').
    WARNING (CMI-2178): VSS: Terminals must not be connected together (to node `0').


Aggregate audit (8:19:08 PM, Wed May 24, 2023):
Time used: CPU = 28.9 s, elapsed = 65.6 s (1m  5.6s), util. = 44.1%.
Time spent in licensing: elapsed = 20.2 ms.
Peak memory used = 134 Mbytes.
Simulation started at: 8:18:02 PM, Wed May 24, 2023, ended at: 8:19:08 PM, Wed May 24, 2023, with elapsed time (wall clock): 65.6 s (1m  5.6s).
spectre completes with 300 errors, 615 warnings, and 2405 notices.
