$DATA1 SOURCE='PrimeSim HSPICE' VERSION='T-2022.06-SP2 linux6' PARAM_COUNT=0
.TITLE '*************************'
 t_fall_delay     t_rise_delay     t_fall_time      t_rise_time     
 temper           alter#          
  2.618e-12        2.628e-12        2.723e-12        2.708e-12      
   25.0000        1               
