
Spectre (R) Circuit Simulator
Version 19.1.0.578.isr15 64bit -- 27 Jan 2021
Copyright (C) 1989-2020 Cadence Design Systems, Inc. All rights reserved worldwide. Cadence and Spectre are registered trademarks of Cadence Design Systems, Inc. All others are the property of their respective holders.

Includes RSA BSAFE(R) Cryptographic or Security Protocol Software from RSA Security, Inc.

User: gabriel.jacinto   Host: virmic01   HostID: A296C20A   PID: 1968932
Memory  available: 146.0387 MB  physical: 3.9992 GB
Linux   : Rocky Linux release 8.5 (Green Obsidian)
CPU Type: Intel(R) Core(TM) i3-3240 CPU @ 3.40GHz
All processors running at 3400.0 MHz
        Socket: Processors (Hyperthreaded Processor)
        0:       0 (  2 ),  1 (  3 )
        
System load averages (1min, 5min, 15min) : 15.8 %, 7.0 %, 4.2 %
Hyperthreading is enabled


Simulating `inverter.sp' on virmic01 at 3:44:26 PM, Sat May 27, 2023 (process id: 1968932).
Current working directory: /home/100000000981355/Desktop/PIC2020/FINFET/7nm/NOT/Data/sim1
Environment variable:
    SPECTRE_DEFAULTS=-E
Command line:
    /usr/eda/cadence/spectre1910_578/tools.lnx86/bin/spectre -64  \
        -outdir teste_spectre/ inverter.sp

Loading /usr/eda/cadence/spectre1910_578/tools.lnx86/cmi/lib/64bit/5.0/libinfineon_sh.so ...
Loading /usr/eda/cadence/spectre1910_578/tools.lnx86/cmi/lib/64bit/5.0/libphilips_o_sh.so ...
Loading /usr/eda/cadence/spectre1910_578/tools.lnx86/cmi/lib/64bit/5.0/libphilips_sh.so ...
Loading /usr/eda/cadence/spectre1910_578/tools.lnx86/cmi/lib/64bit/5.0/libsparam_sh.so ...
Loading /usr/eda/cadence/spectre1910_578/tools.lnx86/cmi/lib/64bit/5.0/libstmodels_sh.so ...
Reading file:  /home/100000000981355/Desktop/PIC2020/FINFET/7nm/NOT/Data/sim1/inverter.sp
Reading file:  /usr/eda/cadence/spectre1910_578/tools.lnx86/spectre/etc/configs/spectre.cfg
Reading file:  /usr/include/stdc-predef.h
Reading file:  /home/100000000981355/Desktop/PIC2020/FINFET/7nm/NOT/Data/lib/FET_TT.pm
Reading file:  /home/100000000981355/Desktop/PIC2020/FINFET/7nm/NOT/Data/sim1/var.sp
Time for NDB Parsing: CPU = 84.996 ms, elapsed = 16.4532 s.
Time accumulated: CPU = 147.425 ms, elapsed = 16.4532 s.
Peak resident memory used = 101 Mbytes.

Time for Elaboration: CPU = 19.313 ms, elapsed = 292.587 ms.
Time accumulated: CPU = 166.96 ms, elapsed = 16.746 s.
Peak resident memory used = 111 Mbytes.

Loading /usr/eda/cadence/spectre1910_578/tools.lnx86/spectre/lib/64bit/mdl/libSpectreEH_sh.so ...

Time for EDB Visiting: CPU = 23.859 ms, elapsed = 314.3 ms.
Time accumulated: CPU = 191.009 ms, elapsed = 17.0605 s.
Peak resident memory used = 122 Mbytes.


Global user options:
               save = all

Scoped user options:

Circuit inventory:
              nodes 3
            bsimcmg 2     
          capacitor 1     
            vsource 2     

Analysis and control statement inventory:
         montecarlo 1     
              sweep 1     
               tran 1     

Output statements:
             .probe 0     
           .measure 4     
               save 0     

Time for parsing: CPU = 3.108 ms, elapsed = 151.748 ms.
Time accumulated: CPU = 194.32 ms, elapsed = 17.2125 s.
Peak resident memory used = 125 Mbytes.

~~~~~~~~~~~~~~~~~~~~~~
Pre-Simulation Summary
~~~~~~~~~~~~~~~~~~~~~~
~~~~~~~~~~~~~~~~~~~~~~


************************************************
MDL montecarlo analysis: iteration = (1 -> 100).
************************************************
Important parameter values:
    seed = 1234
    sampling = standard
    variations = process
    ignoremode = default
    firstrun = 1
    numruns = 100
    nullmfactorcorrelation = no
    donominal = yes
    method = standard

**** Performing nominal run for MDL montecarlo.

*****************************************************************
Transient Analysis `transient1_transient1': time = (0 s -> 40 ns)
*****************************************************************

Opening the PSFXL file teste_spectre/inverter.raw/transient1_transient1.tran.tran ...
DC simulation time: CPU = 473 us, elapsed = 483.036 us.
Important parameter values:
    start = 0 s
    outputstart = 0 s
    stop = 40 ns
    step = 10 ps
    maxstep = 800 ps
    ic = all
    useprevic = no
    skipdc = no
    reltol = 1e-03
    abstol(V) = 1 uV
    abstol(I) = 1 pA
    temp = -25 C
    tnom = 27 C
    tempeffects = all
    errpreset = moderate
    method = trap
    lteratio = 3.5
    relref = sigglobal
    cmin = 0 F
    gmin = 1 pS


Output and IC/nodeset summary:
                 probe  12      
                 save   2       (current)
                 save   3       (voltage)

................9................8................7................6................5................4................3................2................1................0
Number of accepted tran steps =             135

Maximum value achieved for any signal of each quantity: 
V: V(Z) = 710.2 mV
I: I(VX:p) = 36.08 uA
If your circuit contains signals of the same quantity that are vastly different in size (such as high voltage circuitry combined with low voltage control circuitry), you should consider specifying global option `bin_relref=yes'.

~~~~~~~~~~~~~~~~~~~~~~~~~~~~~~~~~
Post-Transient Simulation Summary
~~~~~~~~~~~~~~~~~~~~~~~~~~~~~~~~~
   -   To further speed up simulation, consider
          add ++aps on command line
~~~~~~~~~~~~~~~~~~~~~~~~~~~~~~~~~


During simulation, the CPU load for active processors is :
         0 (8.8 %)       1 (9.0 %)       2 (8.6 %)       3 (13.6 %)
        Total: 40.1%
Initial condition solution time: CPU = 560 us, elapsed = 571.966 us.
Intrinsic tran analysis time:    CPU = 20.987 ms, elapsed = 58.8241 ms.
Total time required for tran analysis `transient1_transient1': CPU = 24.115 ms, elapsed = 61.9681 ms.
Time accumulated: CPU = 231.828 ms, elapsed = 17.4002 s.
Peak resident memory used = 131 Mbytes.


*****************************************************************
Transient Analysis `transient1_transient1': time = (0 s -> 40 ns)
*****************************************************************

Opening the PSFXL file teste_spectre/inverter.raw/transient1_transient1.tran.tran ...
DC simulation time: CPU = 297 us, elapsed = 298.023 us.
Important parameter values:
    start = 0 s
    outputstart = 0 s
    stop = 40 ns
    step = 10 ps
    maxstep = 800 ps
    ic = all
    useprevic = no
    skipdc = no
    reltol = 1e-03
    abstol(V) = 1 uV
    abstol(I) = 1 pA
    temp = -25 C
    tnom = 27 C
    tempeffects = all
    errpreset = moderate
    method = trap
    lteratio = 3.5
    relref = sigglobal
    cmin = 0 F
    gmin = 1 pS


Output and IC/nodeset summary:
                 probe  12      
                 save   2       (current)
                 save   3       (voltage)

................9................8................7................6................5................4................3................2................1................0
Number of accepted tran steps =             127

Maximum value achieved for any signal of each quantity: 
V: V(Z) = 710.1 mV
I: I(VX:p) = 39.74 uA
If your circuit contains signals of the same quantity that are vastly different in size (such as high voltage circuitry combined with low voltage control circuitry), you should consider specifying global option `bin_relref=yes'.

~~~~~~~~~~~~~~~~~~~~~~~~~~~~~~~~~
Post-Transient Simulation Summary
~~~~~~~~~~~~~~~~~~~~~~~~~~~~~~~~~
   -   To further speed up simulation, consider
          add ++aps on command line
~~~~~~~~~~~~~~~~~~~~~~~~~~~~~~~~~


During simulation, the CPU load for active processors is :
         0 (9.3 %)       1 (9.4 %)       2 (9.0 %)       3 (13.9 %)
        Total: 41.6%
Initial condition solution time: CPU = 361 us, elapsed = 363.111 us.
Intrinsic tran analysis time:    CPU = 20.052 ms, elapsed = 48.394 ms.
Total time required for tran analysis `transient1_transient1': CPU = 22.608 ms, elapsed = 51.9791 ms.
Time accumulated: CPU = 257.747 ms, elapsed = 17.4887 s.
Peak resident memory used = 131 Mbytes.

         MDL montecarlo: iteration = 1   ( 1.00% ) complete.

*****************************************************************
Transient Analysis `transient1_transient1': time = (0 s -> 40 ns)
*****************************************************************

Opening the PSFXL file teste_spectre/inverter.raw/transient1_transient1.tran.tran ...
DC simulation time: CPU = 332 us, elapsed = 334.024 us.
Important parameter values:
    start = 0 s
    outputstart = 0 s
    stop = 40 ns
    step = 10 ps
    maxstep = 800 ps
    ic = all
    useprevic = no
    skipdc = no
    reltol = 1e-03
    abstol(V) = 1 uV
    abstol(I) = 1 pA
    temp = -25 C
    tnom = 27 C
    tempeffects = all
    errpreset = moderate
    method = trap
    lteratio = 3.5
    relref = sigglobal
    cmin = 0 F
    gmin = 1 pS


Output and IC/nodeset summary:
                 probe  12      
                 save   2       (current)
                 save   3       (voltage)

................9................8................7................6................5................4................3................2................1................0
Number of accepted tran steps =             134

Maximum value achieved for any signal of each quantity: 
V: V(Z) = 710 mV
I: I(VX:p) = 41.31 uA
If your circuit contains signals of the same quantity that are vastly different in size (such as high voltage circuitry combined with low voltage control circuitry), you should consider specifying global option `bin_relref=yes'.

~~~~~~~~~~~~~~~~~~~~~~~~~~~~~~~~~
Post-Transient Simulation Summary
~~~~~~~~~~~~~~~~~~~~~~~~~~~~~~~~~
   -   To further speed up simulation, consider
          add ++aps on command line
~~~~~~~~~~~~~~~~~~~~~~~~~~~~~~~~~


During simulation, the CPU load for active processors is :
         0 (9.8 %)       1 (9.9 %)       2 (9.5 %)       3 (14.3 %)
        Total: 43.5%
Initial condition solution time: CPU = 417 us, elapsed = 418.901 us.
Intrinsic tran analysis time:    CPU = 19.72 ms, elapsed = 55.0399 ms.
Total time required for tran analysis `transient1_transient1': CPU = 22.279 ms, elapsed = 57.611 ms.
Time accumulated: CPU = 283.618 ms, elapsed = 17.592 s.
Peak resident memory used = 131 Mbytes.

         MDL montecarlo: iteration = 2   ( 2.00% ) complete.

*****************************************************************
Transient Analysis `transient1_transient1': time = (0 s -> 40 ns)
*****************************************************************

Opening the PSFXL file teste_spectre/inverter.raw/transient1_transient1.tran.tran ...
DC simulation time: CPU = 291 us, elapsed = 300.884 us.
Important parameter values:
    start = 0 s
    outputstart = 0 s
    stop = 40 ns
    step = 10 ps
    maxstep = 800 ps
    ic = all
    useprevic = no
    skipdc = no
    reltol = 1e-03
    abstol(V) = 1 uV
    abstol(I) = 1 pA
    temp = -25 C
    tnom = 27 C
    tempeffects = all
    errpreset = moderate
    method = trap
    lteratio = 3.5
    relref = sigglobal
    cmin = 0 F
    gmin = 1 pS


Output and IC/nodeset summary:
                 probe  12      
                 save   2       (current)
                 save   3       (voltage)

................9................8................7................6................5................4................3................2................1................0
Number of accepted tran steps =             119

Maximum value achieved for any signal of each quantity: 
V: V(Z) = 707.6 mV
I: I(VX:p) = 39.58 uA
If your circuit contains signals of the same quantity that are vastly different in size (such as high voltage circuitry combined with low voltage control circuitry), you should consider specifying global option `bin_relref=yes'.

~~~~~~~~~~~~~~~~~~~~~~~~~~~~~~~~~
Post-Transient Simulation Summary
~~~~~~~~~~~~~~~~~~~~~~~~~~~~~~~~~
   -   To further speed up simulation, consider
          add ++aps on command line
~~~~~~~~~~~~~~~~~~~~~~~~~~~~~~~~~


During simulation, the CPU load for active processors is :
         0 (10.2 %)      1 (10.2 %)      2 (9.9 %)       3 (14.8 %)
        Total: 45.0%
Initial condition solution time: CPU = 363 us, elapsed = 375.032 us.
Intrinsic tran analysis time:    CPU = 17.736 ms, elapsed = 50.241 ms.
Total time required for tran analysis `transient1_transient1': CPU = 20.178 ms, elapsed = 52.701 ms.
Time accumulated: CPU = 307.022 ms, elapsed = 17.6776 s.
Peak resident memory used = 131 Mbytes.

         MDL montecarlo: iteration = 3   ( 3.00% ) complete.

*****************************************************************
Transient Analysis `transient1_transient1': time = (0 s -> 40 ns)
*****************************************************************

Opening the PSFXL file teste_spectre/inverter.raw/transient1_transient1.tran.tran ...
DC simulation time: CPU = 346 us, elapsed = 347.853 us.
Important parameter values:
    start = 0 s
    outputstart = 0 s
    stop = 40 ns
    step = 10 ps
    maxstep = 800 ps
    ic = all
    useprevic = no
    skipdc = no
    reltol = 1e-03
    abstol(V) = 1 uV
    abstol(I) = 1 pA
    temp = -25 C
    tnom = 27 C
    tempeffects = all
    errpreset = moderate
    method = trap
    lteratio = 3.5
    relref = sigglobal
    cmin = 0 F
    gmin = 1 pS


Output and IC/nodeset summary:
                 probe  12      
                 save   2       (current)
                 save   3       (voltage)

................9................8................7................6................5................4................3................2................1................0
Number of accepted tran steps =             121

Maximum value achieved for any signal of each quantity: 
V: V(Z) = 711.5 mV
I: I(VX:p) = 40.03 uA
If your circuit contains signals of the same quantity that are vastly different in size (such as high voltage circuitry combined with low voltage control circuitry), you should consider specifying global option `bin_relref=yes'.

~~~~~~~~~~~~~~~~~~~~~~~~~~~~~~~~~
Post-Transient Simulation Summary
~~~~~~~~~~~~~~~~~~~~~~~~~~~~~~~~~
   -   To further speed up simulation, consider
          add ++aps on command line
~~~~~~~~~~~~~~~~~~~~~~~~~~~~~~~~~


During simulation, the CPU load for active processors is :
         0 (10.5 %)      1 (10.6 %)      2 (10.2 %)      3 (15.1 %)
        Total: 46.3%
Initial condition solution time: CPU = 430 us, elapsed = 433.207 us.
Intrinsic tran analysis time:    CPU = 17.916 ms, elapsed = 49.2518 ms.
Total time required for tran analysis `transient1_transient1': CPU = 20.527 ms, elapsed = 51.873 ms.
Time accumulated: CPU = 330.93 ms, elapsed = 17.7607 s.
Peak resident memory used = 131 Mbytes.

         MDL montecarlo: iteration = 4   ( 4.00% ) complete.

*****************************************************************
Transient Analysis `transient1_transient1': time = (0 s -> 40 ns)
*****************************************************************

Opening the PSFXL file teste_spectre/inverter.raw/transient1_transient1.tran.tran ...
DC simulation time: CPU = 291 us, elapsed = 300.169 us.
Important parameter values:
    start = 0 s
    outputstart = 0 s
    stop = 40 ns
    step = 10 ps
    maxstep = 800 ps
    ic = all
    useprevic = no
    skipdc = no
    reltol = 1e-03
    abstol(V) = 1 uV
    abstol(I) = 1 pA
    temp = -25 C
    tnom = 27 C
    tempeffects = all
    errpreset = moderate
    method = trap
    lteratio = 3.5
    relref = sigglobal
    cmin = 0 F
    gmin = 1 pS


Output and IC/nodeset summary:
                 probe  12      
                 save   2       (current)
                 save   3       (voltage)

................9................8................7................6................5................4................3................2................1................0
Number of accepted tran steps =             134

Maximum value achieved for any signal of each quantity: 
V: V(Z) = 710.9 mV
I: I(VX:p) = 32.04 uA
If your circuit contains signals of the same quantity that are vastly different in size (such as high voltage circuitry combined with low voltage control circuitry), you should consider specifying global option `bin_relref=yes'.

~~~~~~~~~~~~~~~~~~~~~~~~~~~~~~~~~
Post-Transient Simulation Summary
~~~~~~~~~~~~~~~~~~~~~~~~~~~~~~~~~
   -   To further speed up simulation, consider
          add ++aps on command line
~~~~~~~~~~~~~~~~~~~~~~~~~~~~~~~~~


During simulation, the CPU load for active processors is :
         0 (10.9 %)      1 (11.0 %)      2 (10.6 %)      3 (15.4 %)
        Total: 47.9%
Initial condition solution time: CPU = 365 us, elapsed = 375.032 us.
Intrinsic tran analysis time:    CPU = 19.854 ms, elapsed = 57.596 ms.
Total time required for tran analysis `transient1_transient1': CPU = 22.286 ms, elapsed = 60.0598 ms.
Time accumulated: CPU = 356.425 ms, elapsed = 17.8604 s.
Peak resident memory used = 131 Mbytes.

         MDL montecarlo: iteration = 5   ( 5.00% ) complete.

*****************************************************************
Transient Analysis `transient1_transient1': time = (0 s -> 40 ns)
*****************************************************************

Opening the PSFXL file teste_spectre/inverter.raw/transient1_transient1.tran.tran ...
DC simulation time: CPU = 381 us, elapsed = 383.854 us.
Important parameter values:
    start = 0 s
    outputstart = 0 s
    stop = 40 ns
    step = 10 ps
    maxstep = 800 ps
    ic = all
    useprevic = no
    skipdc = no
    reltol = 1e-03
    abstol(V) = 1 uV
    abstol(I) = 1 pA
    temp = -25 C
    tnom = 27 C
    tempeffects = all
    errpreset = moderate
    method = trap
    lteratio = 3.5
    relref = sigglobal
    cmin = 0 F
    gmin = 1 pS


Output and IC/nodeset summary:
                 probe  12      
                 save   2       (current)
                 save   3       (voltage)

................9................8................7................6................5................4................3................2................1................0
Number of accepted tran steps =             119

Maximum value achieved for any signal of each quantity: 
V: V(Z) = 706.9 mV
I: I(VX:p) = 45.92 uA
If your circuit contains signals of the same quantity that are vastly different in size (such as high voltage circuitry combined with low voltage control circuitry), you should consider specifying global option `bin_relref=yes'.

~~~~~~~~~~~~~~~~~~~~~~~~~~~~~~~~~
Post-Transient Simulation Summary
~~~~~~~~~~~~~~~~~~~~~~~~~~~~~~~~~
   -   To further speed up simulation, consider
          add ++aps on command line
~~~~~~~~~~~~~~~~~~~~~~~~~~~~~~~~~


During simulation, the CPU load for active processors is :
         0 (11.3 %)      1 (11.3 %)      2 (11.0 %)      3 (15.8 %)
        Total: 49.4%
Initial condition solution time: CPU = 496 us, elapsed = 499.01 us.
Intrinsic tran analysis time:    CPU = 18.676 ms, elapsed = 48.182 ms.
Total time required for tran analysis `transient1_transient1': CPU = 21.341 ms, elapsed = 50.9169 ms.
Time accumulated: CPU = 381.072 ms, elapsed = 17.9515 s.
Peak resident memory used = 131 Mbytes.

         MDL montecarlo: iteration = 6   ( 6.00% ) complete.

*****************************************************************
Transient Analysis `transient1_transient1': time = (0 s -> 40 ns)
*****************************************************************

Opening the PSFXL file teste_spectre/inverter.raw/transient1_transient1.tran.tran ...
DC simulation time: CPU = 270 us, elapsed = 272.036 us.
Important parameter values:
    start = 0 s
    outputstart = 0 s
    stop = 40 ns
    step = 10 ps
    maxstep = 800 ps
    ic = all
    useprevic = no
    skipdc = no
    reltol = 1e-03
    abstol(V) = 1 uV
    abstol(I) = 1 pA
    temp = -25 C
    tnom = 27 C
    tempeffects = all
    errpreset = moderate
    method = trap
    lteratio = 3.5
    relref = sigglobal
    cmin = 0 F
    gmin = 1 pS


Output and IC/nodeset summary:
                 probe  12      
                 save   2       (current)
                 save   3       (voltage)

................9................8................7................6................5................4................3................2................1................0
Number of accepted tran steps =             129

Maximum value achieved for any signal of each quantity: 
V: V(Z) = 711.6 mV
I: I(VX:p) = 37.73 uA
If your circuit contains signals of the same quantity that are vastly different in size (such as high voltage circuitry combined with low voltage control circuitry), you should consider specifying global option `bin_relref=yes'.

~~~~~~~~~~~~~~~~~~~~~~~~~~~~~~~~~
Post-Transient Simulation Summary
~~~~~~~~~~~~~~~~~~~~~~~~~~~~~~~~~
   -   To further speed up simulation, consider
          add ++aps on command line
~~~~~~~~~~~~~~~~~~~~~~~~~~~~~~~~~


During simulation, the CPU load for active processors is :
         0 (11.9 %)      1 (11.8 %)      2 (11.5 %)      3 (16.2 %)
        Total: 51.5%
Initial condition solution time: CPU = 334 us, elapsed = 347.853 us.
Intrinsic tran analysis time:    CPU = 18.579 ms, elapsed = 53.0579 ms.
Total time required for tran analysis `transient1_transient1': CPU = 20.786 ms, elapsed = 55.2762 ms.
Time accumulated: CPU = 404.944 ms, elapsed = 18.0768 s.
Peak resident memory used = 131 Mbytes.

         MDL montecarlo: iteration = 7   ( 7.00% ) complete.

*****************************************************************
Transient Analysis `transient1_transient1': time = (0 s -> 40 ns)
*****************************************************************

Opening the PSFXL file teste_spectre/inverter.raw/transient1_transient1.tran.tran ...
DC simulation time: CPU = 311 us, elapsed = 312.09 us.
Important parameter values:
    start = 0 s
    outputstart = 0 s
    stop = 40 ns
    step = 10 ps
    maxstep = 800 ps
    ic = all
    useprevic = no
    skipdc = no
    reltol = 1e-03
    abstol(V) = 1 uV
    abstol(I) = 1 pA
    temp = -25 C
    tnom = 27 C
    tempeffects = all
    errpreset = moderate
    method = trap
    lteratio = 3.5
    relref = sigglobal
    cmin = 0 F
    gmin = 1 pS


Output and IC/nodeset summary:
                 probe  12      
                 save   2       (current)
                 save   3       (voltage)

................9................8................7................6................5................4................3................2................1................0
Number of accepted tran steps =             128

Maximum value achieved for any signal of each quantity: 
V: V(Z) = 708.6 mV
I: I(VX:p) = 39.05 uA
If your circuit contains signals of the same quantity that are vastly different in size (such as high voltage circuitry combined with low voltage control circuitry), you should consider specifying global option `bin_relref=yes'.

~~~~~~~~~~~~~~~~~~~~~~~~~~~~~~~~~
Post-Transient Simulation Summary
~~~~~~~~~~~~~~~~~~~~~~~~~~~~~~~~~
   -   To further speed up simulation, consider
          add ++aps on command line
~~~~~~~~~~~~~~~~~~~~~~~~~~~~~~~~~


During simulation, the CPU load for active processors is :
         0 (12.4 %)      1 (12.2 %)      2 (11.9 %)      3 (16.6 %)
        Total: 53.2%
Initial condition solution time: CPU = 377 us, elapsed = 380.039 us.
Intrinsic tran analysis time:    CPU = 21.135 ms, elapsed = 50.4291 ms.
Total time required for tran analysis `transient1_transient1': CPU = 23.688 ms, elapsed = 52.985 ms.
Time accumulated: CPU = 431.98 ms, elapsed = 18.1726 s.
Peak resident memory used = 131 Mbytes.

         MDL montecarlo: iteration = 8   ( 8.00% ) complete.

*****************************************************************
Transient Analysis `transient1_transient1': time = (0 s -> 40 ns)
*****************************************************************

Opening the PSFXL file teste_spectre/inverter.raw/transient1_transient1.tran.tran ...
DC simulation time: CPU = 333 us, elapsed = 334.024 us.
Important parameter values:
    start = 0 s
    outputstart = 0 s
    stop = 40 ns
    step = 10 ps
    maxstep = 800 ps
    ic = all
    useprevic = no
    skipdc = no
    reltol = 1e-03
    abstol(V) = 1 uV
    abstol(I) = 1 pA
    temp = -25 C
    tnom = 27 C
    tempeffects = all
    errpreset = moderate
    method = trap
    lteratio = 3.5
    relref = sigglobal
    cmin = 0 F
    gmin = 1 pS


Output and IC/nodeset summary:
                 probe  12      
                 save   2       (current)
                 save   3       (voltage)

................9................8................7................6................5................4................3................2................1................0
Number of accepted tran steps =             120

Maximum value achieved for any signal of each quantity: 
V: V(Z) = 712.3 mV
I: I(VX:p) = 39.19 uA
If your circuit contains signals of the same quantity that are vastly different in size (such as high voltage circuitry combined with low voltage control circuitry), you should consider specifying global option `bin_relref=yes'.

~~~~~~~~~~~~~~~~~~~~~~~~~~~~~~~~~
Post-Transient Simulation Summary
~~~~~~~~~~~~~~~~~~~~~~~~~~~~~~~~~
   -   To further speed up simulation, consider
          add ++aps on command line
~~~~~~~~~~~~~~~~~~~~~~~~~~~~~~~~~


During simulation, the CPU load for active processors is :
         0 (12.9 %)      1 (12.5 %)      2 (12.2 %)      3 (16.9 %)
        Total: 54.4%
Initial condition solution time: CPU = 414 us, elapsed = 417.948 us.
Intrinsic tran analysis time:    CPU = 22.391 ms, elapsed = 51.46 ms.
Total time required for tran analysis `transient1_transient1': CPU = 25.06 ms, elapsed = 54.1408 ms.
Time accumulated: CPU = 460.256 ms, elapsed = 18.2636 s.
Peak resident memory used = 131 Mbytes.

         MDL montecarlo: iteration = 9   ( 9.00% ) complete.

*****************************************************************
Transient Analysis `transient1_transient1': time = (0 s -> 40 ns)
*****************************************************************

Opening the PSFXL file teste_spectre/inverter.raw/transient1_transient1.tran.tran ...
DC simulation time: CPU = 272 us, elapsed = 278.95 us.
Important parameter values:
    start = 0 s
    outputstart = 0 s
    stop = 40 ns
    step = 10 ps
    maxstep = 800 ps
    ic = all
    useprevic = no
    skipdc = no
    reltol = 1e-03
    abstol(V) = 1 uV
    abstol(I) = 1 pA
    temp = -25 C
    tnom = 27 C
    tempeffects = all
    errpreset = moderate
    method = trap
    lteratio = 3.5
    relref = sigglobal
    cmin = 0 F
    gmin = 1 pS


Output and IC/nodeset summary:
                 probe  12      
                 save   2       (current)
                 save   3       (voltage)

................9................8................7................6................5................4................3................2................1................0
Number of accepted tran steps =             126

Maximum value achieved for any signal of each quantity: 
V: V(Z) = 706.9 mV
I: I(VX:p) = 31.47 uA
If your circuit contains signals of the same quantity that are vastly different in size (such as high voltage circuitry combined with low voltage control circuitry), you should consider specifying global option `bin_relref=yes'.

~~~~~~~~~~~~~~~~~~~~~~~~~~~~~~~~~
Post-Transient Simulation Summary
~~~~~~~~~~~~~~~~~~~~~~~~~~~~~~~~~
   -   To further speed up simulation, consider
          add ++aps on command line
~~~~~~~~~~~~~~~~~~~~~~~~~~~~~~~~~


During simulation, the CPU load for active processors is :
         0 (13.2 %)      1 (12.9 %)      2 (12.5 %)      3 (17.2 %)
        Total: 55.9%
Initial condition solution time: CPU = 334 us, elapsed = 340.939 us.
Intrinsic tran analysis time:    CPU = 21.744 ms, elapsed = 51.374 ms.
Total time required for tran analysis `transient1_transient1': CPU = 23.952 ms, elapsed = 53.587 ms.
Time accumulated: CPU = 487.226 ms, elapsed = 18.3548 s.
Peak resident memory used = 131 Mbytes.

         MDL montecarlo: iteration = 10   ( 10.00% ) complete.

*****************************************************************
Transient Analysis `transient1_transient1': time = (0 s -> 40 ns)
*****************************************************************

Opening the PSFXL file teste_spectre/inverter.raw/transient1_transient1.tran.tran ...
DC simulation time: CPU = 419 us, elapsed = 426.054 us.
Important parameter values:
    start = 0 s
    outputstart = 0 s
    stop = 40 ns
    step = 10 ps
    maxstep = 800 ps
    ic = all
    useprevic = no
    skipdc = no
    reltol = 1e-03
    abstol(V) = 1 uV
    abstol(I) = 1 pA
    temp = -25 C
    tnom = 27 C
    tempeffects = all
    errpreset = moderate
    method = trap
    lteratio = 3.5
    relref = sigglobal
    cmin = 0 F
    gmin = 1 pS


Output and IC/nodeset summary:
                 probe  12      
                 save   2       (current)
                 save   3       (voltage)

................9................8................7................6................5................4................3................2................1................0
Number of accepted tran steps =             122

Maximum value achieved for any signal of each quantity: 
V: V(Z) = 711.8 mV
I: I(VX:p) = 41.89 uA
If your circuit contains signals of the same quantity that are vastly different in size (such as high voltage circuitry combined with low voltage control circuitry), you should consider specifying global option `bin_relref=yes'.

~~~~~~~~~~~~~~~~~~~~~~~~~~~~~~~~~
Post-Transient Simulation Summary
~~~~~~~~~~~~~~~~~~~~~~~~~~~~~~~~~
   -   To further speed up simulation, consider
          add ++aps on command line
~~~~~~~~~~~~~~~~~~~~~~~~~~~~~~~~~


During simulation, the CPU load for active processors is :
         0 (13.7 %)      1 (13.3 %)      2 (13.0 %)      3 (17.6 %)
        Total: 57.6%
Initial condition solution time: CPU = 564 us, elapsed = 576.019 us.
Intrinsic tran analysis time:    CPU = 19.144 ms, elapsed = 56.9639 ms.
Total time required for tran analysis `transient1_transient1': CPU = 22.642 ms, elapsed = 60.4951 ms.
Time accumulated: CPU = 513.119 ms, elapsed = 18.4535 s.
Peak resident memory used = 131 Mbytes.

         MDL montecarlo: iteration = 11   ( 11.00% ) complete.

*****************************************************************
Transient Analysis `transient1_transient1': time = (0 s -> 40 ns)
*****************************************************************

Opening the PSFXL file teste_spectre/inverter.raw/transient1_transient1.tran.tran ...
DC simulation time: CPU = 336 us, elapsed = 349.045 us.
Important parameter values:
    start = 0 s
    outputstart = 0 s
    stop = 40 ns
    step = 10 ps
    maxstep = 800 ps
    ic = all
    useprevic = no
    skipdc = no
    reltol = 1e-03
    abstol(V) = 1 uV
    abstol(I) = 1 pA
    temp = -25 C
    tnom = 27 C
    tempeffects = all
    errpreset = moderate
    method = trap
    lteratio = 3.5
    relref = sigglobal
    cmin = 0 F
    gmin = 1 pS


Output and IC/nodeset summary:
                 probe  12      
                 save   2       (current)
                 save   3       (voltage)

................9................8................7................6................5................4................3................2................1................0
Number of accepted tran steps =             135

Maximum value achieved for any signal of each quantity: 
V: V(Z) = 707.4 mV
I: I(VX:p) = 43.65 uA
If your circuit contains signals of the same quantity that are vastly different in size (such as high voltage circuitry combined with low voltage control circuitry), you should consider specifying global option `bin_relref=yes'.

~~~~~~~~~~~~~~~~~~~~~~~~~~~~~~~~~
Post-Transient Simulation Summary
~~~~~~~~~~~~~~~~~~~~~~~~~~~~~~~~~
   -   To further speed up simulation, consider
          add ++aps on command line
~~~~~~~~~~~~~~~~~~~~~~~~~~~~~~~~~


During simulation, the CPU load for active processors is :
         0 (14.0 %)      1 (13.6 %)      2 (13.3 %)      3 (18.1 %)
        Total: 59.0%
Initial condition solution time: CPU = 424 us, elapsed = 437.975 us.
Intrinsic tran analysis time:    CPU = 22.311 ms, elapsed = 59.8068 ms.
Total time required for tran analysis `transient1_transient1': CPU = 25.453 ms, elapsed = 62.9852 ms.
Time accumulated: CPU = 541.984 ms, elapsed = 18.5561 s.
Peak resident memory used = 131 Mbytes.

         MDL montecarlo: iteration = 12   ( 12.00% ) complete.

*****************************************************************
Transient Analysis `transient1_transient1': time = (0 s -> 40 ns)
*****************************************************************

Opening the PSFXL file teste_spectre/inverter.raw/transient1_transient1.tran.tran ...
DC simulation time: CPU = 294 us, elapsed = 293.97 us.
Important parameter values:
    start = 0 s
    outputstart = 0 s
    stop = 40 ns
    step = 10 ps
    maxstep = 800 ps
    ic = all
    useprevic = no
    skipdc = no
    reltol = 1e-03
    abstol(V) = 1 uV
    abstol(I) = 1 pA
    temp = -25 C
    tnom = 27 C
    tempeffects = all
    errpreset = moderate
    method = trap
    lteratio = 3.5
    relref = sigglobal
    cmin = 0 F
    gmin = 1 pS


Output and IC/nodeset summary:
                 probe  12      
                 save   2       (current)
                 save   3       (voltage)

................9................8................7................6................5................4................3................2................1................0
Number of accepted tran steps =             126

Maximum value achieved for any signal of each quantity: 
V: V(Z) = 711.6 mV
I: I(VX:p) = 26.93 uA
If your circuit contains signals of the same quantity that are vastly different in size (such as high voltage circuitry combined with low voltage control circuitry), you should consider specifying global option `bin_relref=yes'.

~~~~~~~~~~~~~~~~~~~~~~~~~~~~~~~~~
Post-Transient Simulation Summary
~~~~~~~~~~~~~~~~~~~~~~~~~~~~~~~~~
   -   To further speed up simulation, consider
          add ++aps on command line
~~~~~~~~~~~~~~~~~~~~~~~~~~~~~~~~~


During simulation, the CPU load for active processors is :
         0 (14.4 %)      1 (13.9 %)      2 (13.6 %)      3 (18.4 %)
        Total: 60.4%
Initial condition solution time: CPU = 363 us, elapsed = 365.973 us.
Intrinsic tran analysis time:    CPU = 18.839 ms, elapsed = 56.0689 ms.
Total time required for tran analysis `transient1_transient1': CPU = 21.367 ms, elapsed = 58.6169 ms.
Time accumulated: CPU = 567.215 ms, elapsed = 18.6524 s.
Peak resident memory used = 131 Mbytes.

         MDL montecarlo: iteration = 13   ( 13.00% ) complete.

*****************************************************************
Transient Analysis `transient1_transient1': time = (0 s -> 40 ns)
*****************************************************************

Opening the PSFXL file teste_spectre/inverter.raw/transient1_transient1.tran.tran ...
DC simulation time: CPU = 307 us, elapsed = 308.037 us.
Important parameter values:
    start = 0 s
    outputstart = 0 s
    stop = 40 ns
    step = 10 ps
    maxstep = 800 ps
    ic = all
    useprevic = no
    skipdc = no
    reltol = 1e-03
    abstol(V) = 1 uV
    abstol(I) = 1 pA
    temp = -25 C
    tnom = 27 C
    tempeffects = all
    errpreset = moderate
    method = trap
    lteratio = 3.5
    relref = sigglobal
    cmin = 0 F
    gmin = 1 pS


Output and IC/nodeset summary:
                 probe  12      
                 save   2       (current)
                 save   3       (voltage)

................9................8................7................6................5................4................3................2................1................0
Number of accepted tran steps =             121

Maximum value achieved for any signal of each quantity: 
V: V(Z) = 706.8 mV
I: I(VX:p) = 42.09 uA
If your circuit contains signals of the same quantity that are vastly different in size (such as high voltage circuitry combined with low voltage control circuitry), you should consider specifying global option `bin_relref=yes'.

~~~~~~~~~~~~~~~~~~~~~~~~~~~~~~~~~
Post-Transient Simulation Summary
~~~~~~~~~~~~~~~~~~~~~~~~~~~~~~~~~
   -   To further speed up simulation, consider
          add ++aps on command line
~~~~~~~~~~~~~~~~~~~~~~~~~~~~~~~~~


During simulation, the CPU load for active processors is :
         0 (14.8 %)      1 (14.4 %)      2 (14.0 %)      3 (18.8 %)
        Total: 61.9%
Initial condition solution time: CPU = 382 us, elapsed = 382.9 us.
Intrinsic tran analysis time:    CPU = 19.665 ms, elapsed = 49.0539 ms.
Total time required for tran analysis `transient1_transient1': CPU = 22.209 ms, elapsed = 51.6121 ms.
Time accumulated: CPU = 592.832 ms, elapsed = 18.754 s.
Peak resident memory used = 131 Mbytes.

         MDL montecarlo: iteration = 14   ( 14.00% ) complete.

*****************************************************************
Transient Analysis `transient1_transient1': time = (0 s -> 40 ns)
*****************************************************************

Opening the PSFXL file teste_spectre/inverter.raw/transient1_transient1.tran.tran ...
DC simulation time: CPU = 287 us, elapsed = 288.01 us.
Important parameter values:
    start = 0 s
    outputstart = 0 s
    stop = 40 ns
    step = 10 ps
    maxstep = 800 ps
    ic = all
    useprevic = no
    skipdc = no
    reltol = 1e-03
    abstol(V) = 1 uV
    abstol(I) = 1 pA
    temp = -25 C
    tnom = 27 C
    tempeffects = all
    errpreset = moderate
    method = trap
    lteratio = 3.5
    relref = sigglobal
    cmin = 0 F
    gmin = 1 pS


Output and IC/nodeset summary:
                 probe  12      
                 save   2       (current)
                 save   3       (voltage)

................9................8................7................6................5................4................3................2................1................0
Number of accepted tran steps =             133

Maximum value achieved for any signal of each quantity: 
V: V(Z) = 710.2 mV
I: I(VX:p) = 27.17 uA
If your circuit contains signals of the same quantity that are vastly different in size (such as high voltage circuitry combined with low voltage control circuitry), you should consider specifying global option `bin_relref=yes'.

~~~~~~~~~~~~~~~~~~~~~~~~~~~~~~~~~
Post-Transient Simulation Summary
~~~~~~~~~~~~~~~~~~~~~~~~~~~~~~~~~
   -   To further speed up simulation, consider
          add ++aps on command line
~~~~~~~~~~~~~~~~~~~~~~~~~~~~~~~~~


During simulation, the CPU load for active processors is :
         0 (15.1 %)      1 (14.7 %)      2 (14.3 %)      3 (19.2 %)
        Total: 63.3%
Initial condition solution time: CPU = 353 us, elapsed = 356.197 us.
Intrinsic tran analysis time:    CPU = 21.643 ms, elapsed = 59.6771 ms.
Total time required for tran analysis `transient1_transient1': CPU = 23.958 ms, elapsed = 62.001 ms.
Time accumulated: CPU = 619.702 ms, elapsed = 18.8552 s.
Peak resident memory used = 132 Mbytes.

         MDL montecarlo: iteration = 15   ( 15.00% ) complete.

*****************************************************************
Transient Analysis `transient1_transient1': time = (0 s -> 40 ns)
*****************************************************************

Opening the PSFXL file teste_spectre/inverter.raw/transient1_transient1.tran.tran ...
DC simulation time: CPU = 306 us, elapsed = 308.037 us.
Important parameter values:
    start = 0 s
    outputstart = 0 s
    stop = 40 ns
    step = 10 ps
    maxstep = 800 ps
    ic = all
    useprevic = no
    skipdc = no
    reltol = 1e-03
    abstol(V) = 1 uV
    abstol(I) = 1 pA
    temp = -25 C
    tnom = 27 C
    tempeffects = all
    errpreset = moderate
    method = trap
    lteratio = 3.5
    relref = sigglobal
    cmin = 0 F
    gmin = 1 pS


Output and IC/nodeset summary:
                 probe  12      
                 save   2       (current)
                 save   3       (voltage)

................9................8................7................6................5................4................3................2................1................0
Number of accepted tran steps =             134

Maximum value achieved for any signal of each quantity: 
V: V(Z) = 707.7 mV
I: I(VX:p) = 27.56 uA
If your circuit contains signals of the same quantity that are vastly different in size (such as high voltage circuitry combined with low voltage control circuitry), you should consider specifying global option `bin_relref=yes'.

~~~~~~~~~~~~~~~~~~~~~~~~~~~~~~~~~
Post-Transient Simulation Summary
~~~~~~~~~~~~~~~~~~~~~~~~~~~~~~~~~
   -   To further speed up simulation, consider
          add ++aps on command line
~~~~~~~~~~~~~~~~~~~~~~~~~~~~~~~~~


During simulation, the CPU load for active processors is :
         0 (15.5 %)      1 (15.1 %)      2 (14.7 %)      3 (19.6 %)
        Total: 65.0%
Initial condition solution time: CPU = 397 us, elapsed = 408.173 us.
Intrinsic tran analysis time:    CPU = 19.071 ms, elapsed = 63.7679 ms.
Total time required for tran analysis `transient1_transient1': CPU = 21.531 ms, elapsed = 66.2541 ms.
Time accumulated: CPU = 644.399 ms, elapsed = 18.9615 s.
Peak resident memory used = 132 Mbytes.

         MDL montecarlo: iteration = 16   ( 16.00% ) complete.

*****************************************************************
Transient Analysis `transient1_transient1': time = (0 s -> 40 ns)
*****************************************************************

Opening the PSFXL file teste_spectre/inverter.raw/transient1_transient1.tran.tran ...
DC simulation time: CPU = 292 us, elapsed = 293.016 us.
Important parameter values:
    start = 0 s
    outputstart = 0 s
    stop = 40 ns
    step = 10 ps
    maxstep = 800 ps
    ic = all
    useprevic = no
    skipdc = no
    reltol = 1e-03
    abstol(V) = 1 uV
    abstol(I) = 1 pA
    temp = -25 C
    tnom = 27 C
    tempeffects = all
    errpreset = moderate
    method = trap
    lteratio = 3.5
    relref = sigglobal
    cmin = 0 F
    gmin = 1 pS


Output and IC/nodeset summary:
                 probe  12      
                 save   2       (current)
                 save   3       (voltage)

................9................8................7................6................5................4................3................2................1................0
Number of accepted tran steps =             129

Maximum value achieved for any signal of each quantity: 
V: V(Z) = 710.8 mV
I: I(VX:p) = 45.2 uA
If your circuit contains signals of the same quantity that are vastly different in size (such as high voltage circuitry combined with low voltage control circuitry), you should consider specifying global option `bin_relref=yes'.

~~~~~~~~~~~~~~~~~~~~~~~~~~~~~~~~~
Post-Transient Simulation Summary
~~~~~~~~~~~~~~~~~~~~~~~~~~~~~~~~~
   -   To further speed up simulation, consider
          add ++aps on command line
~~~~~~~~~~~~~~~~~~~~~~~~~~~~~~~~~


During simulation, the CPU load for active processors is :
         0 (15.8 %)      1 (15.4 %)      2 (15.0 %)      3 (19.9 %)
        Total: 66.2%
Initial condition solution time: CPU = 365 us, elapsed = 367.165 us.
Intrinsic tran analysis time:    CPU = 20.536 ms, elapsed = 59.1888 ms.
Total time required for tran analysis `transient1_transient1': CPU = 22.967 ms, elapsed = 61.6291 ms.
Time accumulated: CPU = 670.687 ms, elapsed = 19.0553 s.
Peak resident memory used = 132 Mbytes.

         MDL montecarlo: iteration = 17   ( 17.00% ) complete.

*****************************************************************
Transient Analysis `transient1_transient1': time = (0 s -> 40 ns)
*****************************************************************

Opening the PSFXL file teste_spectre/inverter.raw/transient1_transient1.tran.tran ...
DC simulation time: CPU = 372 us, elapsed = 375.032 us.
Important parameter values:
    start = 0 s
    outputstart = 0 s
    stop = 40 ns
    step = 10 ps
    maxstep = 800 ps
    ic = all
    useprevic = no
    skipdc = no
    reltol = 1e-03
    abstol(V) = 1 uV
    abstol(I) = 1 pA
    temp = -25 C
    tnom = 27 C
    tempeffects = all
    errpreset = moderate
    method = trap
    lteratio = 3.5
    relref = sigglobal
    cmin = 0 F
    gmin = 1 pS


Output and IC/nodeset summary:
                 probe  12      
                 save   2       (current)
                 save   3       (voltage)

................9................8................7................6................5................4................3................2................1................0
Number of accepted tran steps =             128

Maximum value achieved for any signal of each quantity: 
V: V(Z) = 706.7 mV
I: I(VX:p) = 45.63 uA
If your circuit contains signals of the same quantity that are vastly different in size (such as high voltage circuitry combined with low voltage control circuitry), you should consider specifying global option `bin_relref=yes'.

~~~~~~~~~~~~~~~~~~~~~~~~~~~~~~~~~
Post-Transient Simulation Summary
~~~~~~~~~~~~~~~~~~~~~~~~~~~~~~~~~
   -   To further speed up simulation, consider
          add ++aps on command line
~~~~~~~~~~~~~~~~~~~~~~~~~~~~~~~~~


During simulation, the CPU load for active processors is :
         0 (16.1 %)      1 (15.6 %)      2 (15.3 %)      3 (20.2 %)
        Total: 67.3%
Initial condition solution time: CPU = 464 us, elapsed = 468.016 us.
Intrinsic tran analysis time:    CPU = 18.273 ms, elapsed = 57.8749 ms.
Total time required for tran analysis `transient1_transient1': CPU = 20.928 ms, elapsed = 60.54 ms.
Time accumulated: CPU = 694.874 ms, elapsed = 19.1549 s.
Peak resident memory used = 132 Mbytes.

         MDL montecarlo: iteration = 18   ( 18.00% ) complete.

*****************************************************************
Transient Analysis `transient1_transient1': time = (0 s -> 40 ns)
*****************************************************************

Opening the PSFXL file teste_spectre/inverter.raw/transient1_transient1.tran.tran ...
DC simulation time: CPU = 304 us, elapsed = 304.937 us.
Important parameter values:
    start = 0 s
    outputstart = 0 s
    stop = 40 ns
    step = 10 ps
    maxstep = 800 ps
    ic = all
    useprevic = no
    skipdc = no
    reltol = 1e-03
    abstol(V) = 1 uV
    abstol(I) = 1 pA
    temp = -25 C
    tnom = 27 C
    tempeffects = all
    errpreset = moderate
    method = trap
    lteratio = 3.5
    relref = sigglobal
    cmin = 0 F
    gmin = 1 pS


Output and IC/nodeset summary:
                 probe  12      
                 save   2       (current)
                 save   3       (voltage)

................9................8................7................6................5................4................3................2................1................0
Number of accepted tran steps =             126

Maximum value achieved for any signal of each quantity: 
V: V(Z) = 706.8 mV
I: I(VX:p) = 40.9 uA
If your circuit contains signals of the same quantity that are vastly different in size (such as high voltage circuitry combined with low voltage control circuitry), you should consider specifying global option `bin_relref=yes'.

~~~~~~~~~~~~~~~~~~~~~~~~~~~~~~~~~
Post-Transient Simulation Summary
~~~~~~~~~~~~~~~~~~~~~~~~~~~~~~~~~
   -   To further speed up simulation, consider
          add ++aps on command line
~~~~~~~~~~~~~~~~~~~~~~~~~~~~~~~~~


During simulation, the CPU load for active processors is :
         0 (16.4 %)      1 (16.1 %)      2 (15.7 %)      3 (20.5 %)
        Total: 68.7%
Initial condition solution time: CPU = 373 us, elapsed = 375.032 us.
Intrinsic tran analysis time:    CPU = 19.932 ms, elapsed = 61.7578 ms.
Total time required for tran analysis `transient1_transient1': CPU = 22.413 ms, elapsed = 64.2529 ms.
Time accumulated: CPU = 720.387 ms, elapsed = 19.2585 s.
Peak resident memory used = 132 Mbytes.

         MDL montecarlo: iteration = 19   ( 19.00% ) complete.

*****************************************************************
Transient Analysis `transient1_transient1': time = (0 s -> 40 ns)
*****************************************************************

Opening the PSFXL file teste_spectre/inverter.raw/transient1_transient1.tran.tran ...
DC simulation time: CPU = 315 us, elapsed = 324.011 us.
Important parameter values:
    start = 0 s
    outputstart = 0 s
    stop = 40 ns
    step = 10 ps
    maxstep = 800 ps
    ic = all
    useprevic = no
    skipdc = no
    reltol = 1e-03
    abstol(V) = 1 uV
    abstol(I) = 1 pA
    temp = -25 C
    tnom = 27 C
    tempeffects = all
    errpreset = moderate
    method = trap
    lteratio = 3.5
    relref = sigglobal
    cmin = 0 F
    gmin = 1 pS


Output and IC/nodeset summary:
                 probe  12      
                 save   2       (current)
                 save   3       (voltage)

................9................8................7................6................5................4................3................2................1................0
Number of accepted tran steps =             127

Maximum value achieved for any signal of each quantity: 
V: V(Z) = 707.2 mV
I: I(VX:p) = 36 uA
If your circuit contains signals of the same quantity that are vastly different in size (such as high voltage circuitry combined with low voltage control circuitry), you should consider specifying global option `bin_relref=yes'.

~~~~~~~~~~~~~~~~~~~~~~~~~~~~~~~~~
Post-Transient Simulation Summary
~~~~~~~~~~~~~~~~~~~~~~~~~~~~~~~~~
   -   To further speed up simulation, consider
          add ++aps on command line
~~~~~~~~~~~~~~~~~~~~~~~~~~~~~~~~~


During simulation, the CPU load for active processors is :
         0 (16.9 %)      1 (16.5 %)      2 (16.2 %)      3 (21.0 %)
        Total: 70.5%
Initial condition solution time: CPU = 393 us, elapsed = 401.974 us.
Intrinsic tran analysis time:    CPU = 19.502 ms, elapsed = 72.973 ms.
Total time required for tran analysis `transient1_transient1': CPU = 22.07 ms, elapsed = 75.547 ms.
Time accumulated: CPU = 745.64 ms, elapsed = 19.3786 s.
Peak resident memory used = 132 Mbytes.

         MDL montecarlo: iteration = 20   ( 20.00% ) complete.

*****************************************************************
Transient Analysis `transient1_transient1': time = (0 s -> 40 ns)
*****************************************************************

Opening the PSFXL file teste_spectre/inverter.raw/transient1_transient1.tran.tran ...
DC simulation time: CPU = 302 us, elapsed = 303.03 us.
Important parameter values:
    start = 0 s
    outputstart = 0 s
    stop = 40 ns
    step = 10 ps
    maxstep = 800 ps
    ic = all
    useprevic = no
    skipdc = no
    reltol = 1e-03
    abstol(V) = 1 uV
    abstol(I) = 1 pA
    temp = -25 C
    tnom = 27 C
    tempeffects = all
    errpreset = moderate
    method = trap
    lteratio = 3.5
    relref = sigglobal
    cmin = 0 F
    gmin = 1 pS


Output and IC/nodeset summary:
                 probe  12      
                 save   2       (current)
                 save   3       (voltage)

................9................8................7................6................5................4................3................2................1................0
Number of accepted tran steps =             128

Maximum value achieved for any signal of each quantity: 
V: V(Z) = 711.5 mV
I: I(VX:p) = 28.37 uA
If your circuit contains signals of the same quantity that are vastly different in size (such as high voltage circuitry combined with low voltage control circuitry), you should consider specifying global option `bin_relref=yes'.

~~~~~~~~~~~~~~~~~~~~~~~~~~~~~~~~~
Post-Transient Simulation Summary
~~~~~~~~~~~~~~~~~~~~~~~~~~~~~~~~~
   -   To further speed up simulation, consider
          add ++aps on command line
~~~~~~~~~~~~~~~~~~~~~~~~~~~~~~~~~


During simulation, the CPU load for active processors is :
         0 (17.2 %)      1 (16.9 %)      2 (16.5 %)      3 (21.3 %)
        Total: 71.9%
Initial condition solution time: CPU = 376 us, elapsed = 376.94 us.
Intrinsic tran analysis time:    CPU = 20.192 ms, elapsed = 61.121 ms.
Total time required for tran analysis `transient1_transient1': CPU = 22.614 ms, elapsed = 63.55 ms.
Time accumulated: CPU = 771.299 ms, elapsed = 19.4834 s.
Peak resident memory used = 132 Mbytes.

         MDL montecarlo: iteration = 21   ( 21.00% ) complete.

*****************************************************************
Transient Analysis `transient1_transient1': time = (0 s -> 40 ns)
*****************************************************************

Opening the PSFXL file teste_spectre/inverter.raw/transient1_transient1.tran.tran ...
DC simulation time: CPU = 307 us, elapsed = 308.037 us.
Important parameter values:
    start = 0 s
    outputstart = 0 s
    stop = 40 ns
    step = 10 ps
    maxstep = 800 ps
    ic = all
    useprevic = no
    skipdc = no
    reltol = 1e-03
    abstol(V) = 1 uV
    abstol(I) = 1 pA
    temp = -25 C
    tnom = 27 C
    tempeffects = all
    errpreset = moderate
    method = trap
    lteratio = 3.5
    relref = sigglobal
    cmin = 0 F
    gmin = 1 pS


Output and IC/nodeset summary:
                 probe  12      
                 save   2       (current)
                 save   3       (voltage)

................9................8................7................6................5................4................3................2................1................0
Number of accepted tran steps =             135

Maximum value achieved for any signal of each quantity: 
V: V(Z) = 709.6 mV
I: I(VX:p) = 32.97 uA
If your circuit contains signals of the same quantity that are vastly different in size (such as high voltage circuitry combined with low voltage control circuitry), you should consider specifying global option `bin_relref=yes'.

~~~~~~~~~~~~~~~~~~~~~~~~~~~~~~~~~
Post-Transient Simulation Summary
~~~~~~~~~~~~~~~~~~~~~~~~~~~~~~~~~
   -   To further speed up simulation, consider
          add ++aps on command line
~~~~~~~~~~~~~~~~~~~~~~~~~~~~~~~~~


During simulation, the CPU load for active processors is :
         0 (17.5 %)      1 (17.2 %)      2 (16.8 %)      3 (21.5 %)
        Total: 73.0%
Initial condition solution time: CPU = 369 us, elapsed = 370.979 us.
Intrinsic tran analysis time:    CPU = 20.744 ms, elapsed = 49.1309 ms.
Total time required for tran analysis `transient1_transient1': CPU = 23.286 ms, elapsed = 51.693 ms.
Time accumulated: CPU = 797.587 ms, elapsed = 19.5721 s.
Peak resident memory used = 132 Mbytes.

         MDL montecarlo: iteration = 22   ( 22.00% ) complete.

*****************************************************************
Transient Analysis `transient1_transient1': time = (0 s -> 40 ns)
*****************************************************************

Opening the PSFXL file teste_spectre/inverter.raw/transient1_transient1.tran.tran ...
DC simulation time: CPU = 317 us, elapsed = 324.965 us.
Important parameter values:
    start = 0 s
    outputstart = 0 s
    stop = 40 ns
    step = 10 ps
    maxstep = 800 ps
    ic = all
    useprevic = no
    skipdc = no
    reltol = 1e-03
    abstol(V) = 1 uV
    abstol(I) = 1 pA
    temp = -25 C
    tnom = 27 C
    tempeffects = all
    errpreset = moderate
    method = trap
    lteratio = 3.5
    relref = sigglobal
    cmin = 0 F
    gmin = 1 pS


Output and IC/nodeset summary:
                 probe  12      
                 save   2       (current)
                 save   3       (voltage)

................9................8................7................6................5................4................3................2................1................0
Number of accepted tran steps =             135

Maximum value achieved for any signal of each quantity: 
V: V(Z) = 709.5 mV
I: I(VX:p) = 36.61 uA
If your circuit contains signals of the same quantity that are vastly different in size (such as high voltage circuitry combined with low voltage control circuitry), you should consider specifying global option `bin_relref=yes'.

~~~~~~~~~~~~~~~~~~~~~~~~~~~~~~~~~
Post-Transient Simulation Summary
~~~~~~~~~~~~~~~~~~~~~~~~~~~~~~~~~
   -   To further speed up simulation, consider
          add ++aps on command line
~~~~~~~~~~~~~~~~~~~~~~~~~~~~~~~~~


During simulation, the CPU load for active processors is :
         0 (17.8 %)      1 (17.4 %)      2 (17.2 %)      3 (21.7 %)
        Total: 74.1%
Initial condition solution time: CPU = 400 us, elapsed = 410.08 us.
Intrinsic tran analysis time:    CPU = 19.192 ms, elapsed = 48.378 ms.
Total time required for tran analysis `transient1_transient1': CPU = 21.745 ms, elapsed = 50.992 ms.
Time accumulated: CPU = 822.318 ms, elapsed = 19.662 s.
Peak resident memory used = 132 Mbytes.

         MDL montecarlo: iteration = 23   ( 23.00% ) complete.

*****************************************************************
Transient Analysis `transient1_transient1': time = (0 s -> 40 ns)
*****************************************************************

Opening the PSFXL file teste_spectre/inverter.raw/transient1_transient1.tran.tran ...
DC simulation time: CPU = 293 us, elapsed = 301.838 us.
Important parameter values:
    start = 0 s
    outputstart = 0 s
    stop = 40 ns
    step = 10 ps
    maxstep = 800 ps
    ic = all
    useprevic = no
    skipdc = no
    reltol = 1e-03
    abstol(V) = 1 uV
    abstol(I) = 1 pA
    temp = -25 C
    tnom = 27 C
    tempeffects = all
    errpreset = moderate
    method = trap
    lteratio = 3.5
    relref = sigglobal
    cmin = 0 F
    gmin = 1 pS


Output and IC/nodeset summary:
                 probe  12      
                 save   2       (current)
                 save   3       (voltage)

................9................8................7................6................5................4................3................2................1................0
Number of accepted tran steps =             134

Maximum value achieved for any signal of each quantity: 
V: V(Z) = 710.9 mV
I: I(VX:p) = 34.32 uA
If your circuit contains signals of the same quantity that are vastly different in size (such as high voltage circuitry combined with low voltage control circuitry), you should consider specifying global option `bin_relref=yes'.

~~~~~~~~~~~~~~~~~~~~~~~~~~~~~~~~~
Post-Transient Simulation Summary
~~~~~~~~~~~~~~~~~~~~~~~~~~~~~~~~~
   -   To further speed up simulation, consider
          add ++aps on command line
~~~~~~~~~~~~~~~~~~~~~~~~~~~~~~~~~


During simulation, the CPU load for active processors is :
         0 (18.2 %)      1 (17.8 %)      2 (17.4 %)      3 (22.0 %)
        Total: 75.4%
Initial condition solution time: CPU = 361 us, elapsed = 372.171 us.
Intrinsic tran analysis time:    CPU = 19.899 ms, elapsed = 58.917 ms.
Total time required for tran analysis `transient1_transient1': CPU = 22.254 ms, elapsed = 61.2872 ms.
Time accumulated: CPU = 847.748 ms, elapsed = 19.7729 s.
Peak resident memory used = 132 Mbytes.

         MDL montecarlo: iteration = 24   ( 24.00% ) complete.

*****************************************************************
Transient Analysis `transient1_transient1': time = (0 s -> 40 ns)
*****************************************************************

Opening the PSFXL file teste_spectre/inverter.raw/transient1_transient1.tran.tran ...
DC simulation time: CPU = 319 us, elapsed = 320.911 us.
Important parameter values:
    start = 0 s
    outputstart = 0 s
    stop = 40 ns
    step = 10 ps
    maxstep = 800 ps
    ic = all
    useprevic = no
    skipdc = no
    reltol = 1e-03
    abstol(V) = 1 uV
    abstol(I) = 1 pA
    temp = -25 C
    tnom = 27 C
    tempeffects = all
    errpreset = moderate
    method = trap
    lteratio = 3.5
    relref = sigglobal
    cmin = 0 F
    gmin = 1 pS


Output and IC/nodeset summary:
                 probe  12      
                 save   2       (current)
                 save   3       (voltage)

................9................8................7................6................5................4................3................2................1................0
Number of accepted tran steps =             125

Maximum value achieved for any signal of each quantity: 
V: V(Z) = 712 mV
I: I(VX:p) = 26.47 uA
If your circuit contains signals of the same quantity that are vastly different in size (such as high voltage circuitry combined with low voltage control circuitry), you should consider specifying global option `bin_relref=yes'.

~~~~~~~~~~~~~~~~~~~~~~~~~~~~~~~~~
Post-Transient Simulation Summary
~~~~~~~~~~~~~~~~~~~~~~~~~~~~~~~~~
   -   To further speed up simulation, consider
          add ++aps on command line
~~~~~~~~~~~~~~~~~~~~~~~~~~~~~~~~~


During simulation, the CPU load for active processors is :
         0 (18.4 %)      1 (18.1 %)      2 (17.7 %)      3 (22.3 %)
        Total: 76.5%
Initial condition solution time: CPU = 404 us, elapsed = 406.981 us.
Intrinsic tran analysis time:    CPU = 16.916 ms, elapsed = 46.0751 ms.
Total time required for tran analysis `transient1_transient1': CPU = 19.584 ms, elapsed = 48.7461 ms.
Time accumulated: CPU = 870.145 ms, elapsed = 19.8597 s.
Peak resident memory used = 132 Mbytes.

         MDL montecarlo: iteration = 25   ( 25.00% ) complete.

*****************************************************************
Transient Analysis `transient1_transient1': time = (0 s -> 40 ns)
*****************************************************************

Opening the PSFXL file teste_spectre/inverter.raw/transient1_transient1.tran.tran ...
DC simulation time: CPU = 326 us, elapsed = 327.11 us.
Important parameter values:
    start = 0 s
    outputstart = 0 s
    stop = 40 ns
    step = 10 ps
    maxstep = 800 ps
    ic = all
    useprevic = no
    skipdc = no
    reltol = 1e-03
    abstol(V) = 1 uV
    abstol(I) = 1 pA
    temp = -25 C
    tnom = 27 C
    tempeffects = all
    errpreset = moderate
    method = trap
    lteratio = 3.5
    relref = sigglobal
    cmin = 0 F
    gmin = 1 pS


Output and IC/nodeset summary:
                 probe  12      
                 save   2       (current)
                 save   3       (voltage)

................9................8................7................6................5................4................3................2................1................0
Number of accepted tran steps =             128

Maximum value achieved for any signal of each quantity: 
V: V(Z) = 708.6 mV
I: I(VX:p) = 25.86 uA
If your circuit contains signals of the same quantity that are vastly different in size (such as high voltage circuitry combined with low voltage control circuitry), you should consider specifying global option `bin_relref=yes'.

~~~~~~~~~~~~~~~~~~~~~~~~~~~~~~~~~
Post-Transient Simulation Summary
~~~~~~~~~~~~~~~~~~~~~~~~~~~~~~~~~
   -   To further speed up simulation, consider
          add ++aps on command line
~~~~~~~~~~~~~~~~~~~~~~~~~~~~~~~~~


During simulation, the CPU load for active processors is :
         0 (18.7 %)      1 (18.4 %)      2 (17.9 %)      3 (22.6 %)
        Total: 77.6%
Initial condition solution time: CPU = 406 us, elapsed = 407.934 us.
Intrinsic tran analysis time:    CPU = 18.357 ms, elapsed = 56.278 ms.
Total time required for tran analysis `transient1_transient1': CPU = 21.07 ms, elapsed = 59.0091 ms.
Time accumulated: CPU = 894.459 ms, elapsed = 19.9539 s.
Peak resident memory used = 132 Mbytes.

         MDL montecarlo: iteration = 26   ( 26.00% ) complete.

*****************************************************************
Transient Analysis `transient1_transient1': time = (0 s -> 40 ns)
*****************************************************************

Opening the PSFXL file teste_spectre/inverter.raw/transient1_transient1.tran.tran ...
DC simulation time: CPU = 329 us, elapsed = 339.031 us.
Important parameter values:
    start = 0 s
    outputstart = 0 s
    stop = 40 ns
    step = 10 ps
    maxstep = 800 ps
    ic = all
    useprevic = no
    skipdc = no
    reltol = 1e-03
    abstol(V) = 1 uV
    abstol(I) = 1 pA
    temp = -25 C
    tnom = 27 C
    tempeffects = all
    errpreset = moderate
    method = trap
    lteratio = 3.5
    relref = sigglobal
    cmin = 0 F
    gmin = 1 pS


Output and IC/nodeset summary:
                 probe  12      
                 save   2       (current)
                 save   3       (voltage)

................9................8................7................6................5................4................3................2................1................0
Number of accepted tran steps =             134

Maximum value achieved for any signal of each quantity: 
V: V(Z) = 710.9 mV
I: I(VX:p) = 36.37 uA
If your circuit contains signals of the same quantity that are vastly different in size (such as high voltage circuitry combined with low voltage control circuitry), you should consider specifying global option `bin_relref=yes'.

~~~~~~~~~~~~~~~~~~~~~~~~~~~~~~~~~
Post-Transient Simulation Summary
~~~~~~~~~~~~~~~~~~~~~~~~~~~~~~~~~
   -   To further speed up simulation, consider
          add ++aps on command line
~~~~~~~~~~~~~~~~~~~~~~~~~~~~~~~~~


During simulation, the CPU load for active processors is :
         0 (18.9 %)      1 (18.7 %)      2 (18.3 %)      3 (22.8 %)
        Total: 78.6%
Initial condition solution time: CPU = 420 us, elapsed = 429.869 us.
Intrinsic tran analysis time:    CPU = 19.776 ms, elapsed = 60.0541 ms.
Total time required for tran analysis `transient1_transient1': CPU = 22.372 ms, elapsed = 62.6702 ms.
Time accumulated: CPU = 919.911 ms, elapsed = 20.0494 s.
Peak resident memory used = 132 Mbytes.

         MDL montecarlo: iteration = 27   ( 27.00% ) complete.

*****************************************************************
Transient Analysis `transient1_transient1': time = (0 s -> 40 ns)
*****************************************************************

Opening the PSFXL file teste_spectre/inverter.raw/transient1_transient1.tran.tran ...
DC simulation time: CPU = 328 us, elapsed = 329.018 us.
Important parameter values:
    start = 0 s
    outputstart = 0 s
    stop = 40 ns
    step = 10 ps
    maxstep = 800 ps
    ic = all
    useprevic = no
    skipdc = no
    reltol = 1e-03
    abstol(V) = 1 uV
    abstol(I) = 1 pA
    temp = -25 C
    tnom = 27 C
    tempeffects = all
    errpreset = moderate
    method = trap
    lteratio = 3.5
    relref = sigglobal
    cmin = 0 F
    gmin = 1 pS


Output and IC/nodeset summary:
                 probe  12      
                 save   2       (current)
                 save   3       (voltage)

................9................8................7................6................5................4................3................2................1................0
Number of accepted tran steps =             119

Maximum value achieved for any signal of each quantity: 
V: V(Z) = 707 mV
I: I(VX:p) = 40.08 uA
If your circuit contains signals of the same quantity that are vastly different in size (such as high voltage circuitry combined with low voltage control circuitry), you should consider specifying global option `bin_relref=yes'.

~~~~~~~~~~~~~~~~~~~~~~~~~~~~~~~~~
Post-Transient Simulation Summary
~~~~~~~~~~~~~~~~~~~~~~~~~~~~~~~~~
   -   To further speed up simulation, consider
          add ++aps on command line
~~~~~~~~~~~~~~~~~~~~~~~~~~~~~~~~~


During simulation, the CPU load for active processors is :
         0 (19.2 %)      1 (19.0 %)      2 (18.5 %)      3 (23.1 %)
        Total: 79.7%
Initial condition solution time: CPU = 408 us, elapsed = 411.034 us.
Intrinsic tran analysis time:    CPU = 18.373 ms, elapsed = 55.0051 ms.
Total time required for tran analysis `transient1_transient1': CPU = 21.101 ms, elapsed = 57.7488 ms.
Time accumulated: CPU = 943.958 ms, elapsed = 20.145 s.
Peak resident memory used = 132 Mbytes.

         MDL montecarlo: iteration = 28   ( 28.00% ) complete.

*****************************************************************
Transient Analysis `transient1_transient1': time = (0 s -> 40 ns)
*****************************************************************

Opening the PSFXL file teste_spectre/inverter.raw/transient1_transient1.tran.tran ...
DC simulation time: CPU = 295 us, elapsed = 297.07 us.
Important parameter values:
    start = 0 s
    outputstart = 0 s
    stop = 40 ns
    step = 10 ps
    maxstep = 800 ps
    ic = all
    useprevic = no
    skipdc = no
    reltol = 1e-03
    abstol(V) = 1 uV
    abstol(I) = 1 pA
    temp = -25 C
    tnom = 27 C
    tempeffects = all
    errpreset = moderate
    method = trap
    lteratio = 3.5
    relref = sigglobal
    cmin = 0 F
    gmin = 1 pS


Output and IC/nodeset summary:
                 probe  12      
                 save   2       (current)
                 save   3       (voltage)

................9................8................7................6................5................4................3................2................1................0
Number of accepted tran steps =             129

Maximum value achieved for any signal of each quantity: 
V: V(Z) = 710.8 mV
I: I(VX:p) = 41.41 uA
If your circuit contains signals of the same quantity that are vastly different in size (such as high voltage circuitry combined with low voltage control circuitry), you should consider specifying global option `bin_relref=yes'.

~~~~~~~~~~~~~~~~~~~~~~~~~~~~~~~~~
Post-Transient Simulation Summary
~~~~~~~~~~~~~~~~~~~~~~~~~~~~~~~~~
   -   To further speed up simulation, consider
          add ++aps on command line
~~~~~~~~~~~~~~~~~~~~~~~~~~~~~~~~~


During simulation, the CPU load for active processors is :
         0 (19.5 %)      1 (19.3 %)      2 (18.7 %)      3 (23.3 %)
        Total: 80.8%
Initial condition solution time: CPU = 371 us, elapsed = 374.079 us.
Intrinsic tran analysis time:    CPU = 20.678 ms, elapsed = 63.1092 ms.
Total time required for tran analysis `transient1_transient1': CPU = 23.133 ms, elapsed = 65.5732 ms.
Time accumulated: CPU = 970.109 ms, elapsed = 20.244 s.
Peak resident memory used = 132 Mbytes.

         MDL montecarlo: iteration = 29   ( 29.00% ) complete.

*****************************************************************
Transient Analysis `transient1_transient1': time = (0 s -> 40 ns)
*****************************************************************

Opening the PSFXL file teste_spectre/inverter.raw/transient1_transient1.tran.tran ...
DC simulation time: CPU = 308 us, elapsed = 317.097 us.
Important parameter values:
    start = 0 s
    outputstart = 0 s
    stop = 40 ns
    step = 10 ps
    maxstep = 800 ps
    ic = all
    useprevic = no
    skipdc = no
    reltol = 1e-03
    abstol(V) = 1 uV
    abstol(I) = 1 pA
    temp = -25 C
    tnom = 27 C
    tempeffects = all
    errpreset = moderate
    method = trap
    lteratio = 3.5
    relref = sigglobal
    cmin = 0 F
    gmin = 1 pS


Output and IC/nodeset summary:
                 probe  12      
                 save   2       (current)
                 save   3       (voltage)

................9................8................7................6................5................4................3................2................1................0
Number of accepted tran steps =             125

Maximum value achieved for any signal of each quantity: 
V: V(Z) = 712 mV
I: I(VX:p) = 27.41 uA
If your circuit contains signals of the same quantity that are vastly different in size (such as high voltage circuitry combined with low voltage control circuitry), you should consider specifying global option `bin_relref=yes'.

~~~~~~~~~~~~~~~~~~~~~~~~~~~~~~~~~
Post-Transient Simulation Summary
~~~~~~~~~~~~~~~~~~~~~~~~~~~~~~~~~
   -   To further speed up simulation, consider
          add ++aps on command line
~~~~~~~~~~~~~~~~~~~~~~~~~~~~~~~~~


During simulation, the CPU load for active processors is :
         0 (19.8 %)      1 (19.5 %)      2 (19.1 %)      3 (23.7 %)
        Total: 82.2%
Initial condition solution time: CPU = 384 us, elapsed = 393.152 us.
Intrinsic tran analysis time:    CPU = 18.972 ms, elapsed = 58.2111 ms.
Total time required for tran analysis `transient1_transient1': CPU = 21.499 ms, elapsed = 60.7431 ms.
Time accumulated: CPU = 994.639 ms, elapsed = 20.3406 s.
Peak resident memory used = 132 Mbytes.

         MDL montecarlo: iteration = 30   ( 30.00% ) complete.

*****************************************************************
Transient Analysis `transient1_transient1': time = (0 s -> 40 ns)
*****************************************************************

Opening the PSFXL file teste_spectre/inverter.raw/transient1_transient1.tran.tran ...
DC simulation time: CPU = 296 us, elapsed = 304.937 us.
Important parameter values:
    start = 0 s
    outputstart = 0 s
    stop = 40 ns
    step = 10 ps
    maxstep = 800 ps
    ic = all
    useprevic = no
    skipdc = no
    reltol = 1e-03
    abstol(V) = 1 uV
    abstol(I) = 1 pA
    temp = -25 C
    tnom = 27 C
    tempeffects = all
    errpreset = moderate
    method = trap
    lteratio = 3.5
    relref = sigglobal
    cmin = 0 F
    gmin = 1 pS


Output and IC/nodeset summary:
                 probe  12      
                 save   2       (current)
                 save   3       (voltage)

................9................8................7................6................5................4................3................2................1................0
Number of accepted tran steps =             129

Maximum value achieved for any signal of each quantity: 
V: V(Z) = 711.9 mV
I: I(VX:p) = 36.99 uA
If your circuit contains signals of the same quantity that are vastly different in size (such as high voltage circuitry combined with low voltage control circuitry), you should consider specifying global option `bin_relref=yes'.

~~~~~~~~~~~~~~~~~~~~~~~~~~~~~~~~~
Post-Transient Simulation Summary
~~~~~~~~~~~~~~~~~~~~~~~~~~~~~~~~~
   -   To further speed up simulation, consider
          add ++aps on command line
~~~~~~~~~~~~~~~~~~~~~~~~~~~~~~~~~


During simulation, the CPU load for active processors is :
         0 (20.2 %)      1 (19.8 %)      2 (19.4 %)      3 (24.1 %)
        Total: 83.5%
Initial condition solution time: CPU = 379 us, elapsed = 390.053 us.
Intrinsic tran analysis time:    CPU = 19.103 ms, elapsed = 77.0791 ms.
Total time required for tran analysis `transient1_transient1': CPU = 21.469 ms, elapsed = 79.4671 ms.
Time accumulated: CPU = 1.01924 s, elapsed = 20.5228 s.
Peak resident memory used = 132 Mbytes.

         MDL montecarlo: iteration = 31   ( 31.00% ) complete.

*****************************************************************
Transient Analysis `transient1_transient1': time = (0 s -> 40 ns)
*****************************************************************

Opening the PSFXL file teste_spectre/inverter.raw/transient1_transient1.tran.tran ...
DC simulation time: CPU = 297 us, elapsed = 298.977 us.
Important parameter values:
    start = 0 s
    outputstart = 0 s
    stop = 40 ns
    step = 10 ps
    maxstep = 800 ps
    ic = all
    useprevic = no
    skipdc = no
    reltol = 1e-03
    abstol(V) = 1 uV
    abstol(I) = 1 pA
    temp = -25 C
    tnom = 27 C
    tempeffects = all
    errpreset = moderate
    method = trap
    lteratio = 3.5
    relref = sigglobal
    cmin = 0 F
    gmin = 1 pS


Output and IC/nodeset summary:
                 probe  12      
                 save   2       (current)
                 save   3       (voltage)

................9................8................7................6................5................4................3................2................1................0
Number of accepted tran steps =             134

Maximum value achieved for any signal of each quantity: 
V: V(Z) = 710.5 mV
I: I(VX:p) = 41.01 uA
If your circuit contains signals of the same quantity that are vastly different in size (such as high voltage circuitry combined with low voltage control circuitry), you should consider specifying global option `bin_relref=yes'.

~~~~~~~~~~~~~~~~~~~~~~~~~~~~~~~~~
Post-Transient Simulation Summary
~~~~~~~~~~~~~~~~~~~~~~~~~~~~~~~~~
   -   To further speed up simulation, consider
          add ++aps on command line
~~~~~~~~~~~~~~~~~~~~~~~~~~~~~~~~~


During simulation, the CPU load for active processors is :
         0 (20.4 %)      1 (20.0 %)      2 (19.6 %)      3 (24.3 %)
        Total: 84.4%
Initial condition solution time: CPU = 371 us, elapsed = 372.887 us.
Intrinsic tran analysis time:    CPU = 20.237 ms, elapsed = 90.872 ms.
Total time required for tran analysis `transient1_transient1': CPU = 22.766 ms, elapsed = 97.116 ms.
Time accumulated: CPU = 1.04527 s, elapsed = 20.668 s.
Peak resident memory used = 132 Mbytes.

         MDL montecarlo: iteration = 32   ( 32.00% ) complete.

*****************************************************************
Transient Analysis `transient1_transient1': time = (0 s -> 40 ns)
*****************************************************************

Opening the PSFXL file teste_spectre/inverter.raw/transient1_transient1.tran.tran ...
DC simulation time: CPU = 326 us, elapsed = 332.832 us.
Important parameter values:
    start = 0 s
    outputstart = 0 s
    stop = 40 ns
    step = 10 ps
    maxstep = 800 ps
    ic = all
    useprevic = no
    skipdc = no
    reltol = 1e-03
    abstol(V) = 1 uV
    abstol(I) = 1 pA
    temp = -25 C
    tnom = 27 C
    tempeffects = all
    errpreset = moderate
    method = trap
    lteratio = 3.5
    relref = sigglobal
    cmin = 0 F
    gmin = 1 pS


Output and IC/nodeset summary:
                 probe  12      
                 save   2       (current)
                 save   3       (voltage)

................9................8................7................6................5................4................3................2................1................0
Number of accepted tran steps =             125

Maximum value achieved for any signal of each quantity: 
V: V(Z) = 711.9 mV
I: I(VX:p) = 27.37 uA
If your circuit contains signals of the same quantity that are vastly different in size (such as high voltage circuitry combined with low voltage control circuitry), you should consider specifying global option `bin_relref=yes'.

~~~~~~~~~~~~~~~~~~~~~~~~~~~~~~~~~
Post-Transient Simulation Summary
~~~~~~~~~~~~~~~~~~~~~~~~~~~~~~~~~
   -   To further speed up simulation, consider
          add ++aps on command line
~~~~~~~~~~~~~~~~~~~~~~~~~~~~~~~~~


During simulation, the CPU load for active processors is :
         0 (20.8 %)      1 (20.3 %)      2 (20.0 %)      3 (24.6 %)
        Total: 85.7%
Initial condition solution time: CPU = 417 us, elapsed = 427.008 us.
Intrinsic tran analysis time:    CPU = 17.092 ms, elapsed = 60.6961 ms.
Total time required for tran analysis `transient1_transient1': CPU = 19.709 ms, elapsed = 63.3421 ms.
Time accumulated: CPU = 1.06809 s, elapsed = 20.7682 s.
Peak resident memory used = 132 Mbytes.

         MDL montecarlo: iteration = 33   ( 33.00% ) complete.

*****************************************************************
Transient Analysis `transient1_transient1': time = (0 s -> 40 ns)
*****************************************************************

Opening the PSFXL file teste_spectre/inverter.raw/transient1_transient1.tran.tran ...
DC simulation time: CPU = 278 us, elapsed = 283.957 us.
Important parameter values:
    start = 0 s
    outputstart = 0 s
    stop = 40 ns
    step = 10 ps
    maxstep = 800 ps
    ic = all
    useprevic = no
    skipdc = no
    reltol = 1e-03
    abstol(V) = 1 uV
    abstol(I) = 1 pA
    temp = -25 C
    tnom = 27 C
    tempeffects = all
    errpreset = moderate
    method = trap
    lteratio = 3.5
    relref = sigglobal
    cmin = 0 F
    gmin = 1 pS


Output and IC/nodeset summary:
                 probe  12      
                 save   2       (current)
                 save   3       (voltage)

................9................8................7................6................5................4................3................2................1................0
[...]
Number of accepted tran steps =             127

Maximum value achieved for any signal of each quantity: 
V: V(Z) = 706.5 mV
I: I(VX:p) = 30.49 uA
If your circuit contains signals of the same quantity that are vastly different in size (such as high voltage circuitry combined with low voltage control circuitry), you should consider specifying global option `bin_relref=yes'.

~~~~~~~~~~~~~~~~~~~~~~~~~~~~~~~~~
Post-Transient Simulation Summary
~~~~~~~~~~~~~~~~~~~~~~~~~~~~~~~~~
   -   To further speed up simulation, consider
          add ++aps on command line
~~~~~~~~~~~~~~~~~~~~~~~~~~~~~~~~~


During simulation, the CPU load for active processors is :
         0 (60.9 %)      1 (60.6 %)      2 (61.0 %)      3 (61.7 %)
        Total: 244.2%
Initial condition solution time: CPU = 344 us, elapsed = 346.184 us.
Intrinsic tran analysis time:    CPU = 19.305 ms, elapsed = 74.5239 ms.
Total time required for tran analysis `transient1_transient1': CPU = 21.751 ms, elapsed = 76.9761 ms.
Time accumulated: CPU = 15.1249 s, elapsed = 85.1557 s (1m  25.2s).
Peak resident memory used = 136 Mbytes.

         MDL montecarlo: iteration = 92   ( 92.00% ) complete.

*****************************************************************
Transient Analysis `transient1_transient1': time = (0 s -> 40 ns)
*****************************************************************

Opening the PSFXL file teste_spectre/inverter.raw/transient1_transient1.tran.tran ...
DC simulation time: CPU = 271 us, elapsed = 270.844 us.
Important parameter values:
    start = 0 s
    outputstart = 0 s
    stop = 40 ns
    step = 10 ps
    maxstep = 800 ps
    ic = all
    useprevic = no
    skipdc = no
    reltol = 1e-03
    abstol(V) = 1 uV
    abstol(I) = 1 pA
    temp = 100 C
    tnom = 27 C
    tempeffects = all
    errpreset = moderate
    method = trap
    lteratio = 3.5
    relref = sigglobal
    cmin = 0 F
    gmin = 1 pS


Output and IC/nodeset summary:
                 probe  12      
                 save   2       (current)
                 save   3       (voltage)

................9................8................7................6................5................4................3................2................1................0
Number of accepted tran steps =             122

Maximum value achieved for any signal of each quantity: 
V: V(Z) = 708 mV
I: I(VX:p) = 37.64 uA
If your circuit contains signals of the same quantity that are vastly different in size (such as high voltage circuitry combined with low voltage control circuitry), you should consider specifying global option `bin_relref=yes'.

~~~~~~~~~~~~~~~~~~~~~~~~~~~~~~~~~
Post-Transient Simulation Summary
~~~~~~~~~~~~~~~~~~~~~~~~~~~~~~~~~
   -   To further speed up simulation, consider
          add ++aps on command line
~~~~~~~~~~~~~~~~~~~~~~~~~~~~~~~~~


During simulation, the CPU load for active processors is :
         0 (60.9 %)      1 (60.6 %)      2 (61.0 %)      3 (61.7 %)
        Total: 244.3%
Initial condition solution time: CPU = 327 us, elapsed = 329.971 us.
Intrinsic tran analysis time:    CPU = 17.189 ms, elapsed = 63.3309 ms.
Total time required for tran analysis `transient1_transient1': CPU = 19.56 ms, elapsed = 65.7079 ms.
Time accumulated: CPU = 15.1477 s, elapsed = 85.2696 s (1m  25.3s).
Peak resident memory used = 136 Mbytes.

         MDL montecarlo: iteration = 93   ( 93.00% ) complete.

*****************************************************************
Transient Analysis `transient1_transient1': time = (0 s -> 40 ns)
*****************************************************************

Opening the PSFXL file teste_spectre/inverter.raw/transient1_transient1.tran.tran ...
DC simulation time: CPU = 270 us, elapsed = 271.082 us.
Important parameter values:
    start = 0 s
    outputstart = 0 s
    stop = 40 ns
    step = 10 ps
    maxstep = 800 ps
    ic = all
    useprevic = no
    skipdc = no
    reltol = 1e-03
    abstol(V) = 1 uV
    abstol(I) = 1 pA
    temp = 100 C
    tnom = 27 C
    tempeffects = all
    errpreset = moderate
    method = trap
    lteratio = 3.5
    relref = sigglobal
    cmin = 0 F
    gmin = 1 pS


Output and IC/nodeset summary:
                 probe  12      
                 save   2       (current)
                 save   3       (voltage)

................9................8................7................6................5................4................3................2................1................0
Number of accepted tran steps =             133

Maximum value achieved for any signal of each quantity: 
V: V(Z) = 706.8 mV
I: I(VX:p) = 28.64 uA
If your circuit contains signals of the same quantity that are vastly different in size (such as high voltage circuitry combined with low voltage control circuitry), you should consider specifying global option `bin_relref=yes'.

~~~~~~~~~~~~~~~~~~~~~~~~~~~~~~~~~
Post-Transient Simulation Summary
~~~~~~~~~~~~~~~~~~~~~~~~~~~~~~~~~
   -   To further speed up simulation, consider
          add ++aps on command line
~~~~~~~~~~~~~~~~~~~~~~~~~~~~~~~~~


During simulation, the CPU load for active processors is :
         0 (60.9 %)      1 (60.6 %)      2 (61.0 %)      3 (61.7 %)
        Total: 244.3%
Initial condition solution time: CPU = 353 us, elapsed = 363.111 us.
Intrinsic tran analysis time:    CPU = 20.702 ms, elapsed = 67.75 ms.
Total time required for tran analysis `transient1_transient1': CPU = 22.928 ms, elapsed = 69.9921 ms.
Time accumulated: CPU = 15.1737 s, elapsed = 85.432 s (1m  25.4s).
Peak resident memory used = 136 Mbytes.

         MDL montecarlo: iteration = 94   ( 94.00% ) complete.

*****************************************************************
Transient Analysis `transient1_transient1': time = (0 s -> 40 ns)
*****************************************************************

Opening the PSFXL file teste_spectre/inverter.raw/transient1_transient1.tran.tran ...
DC simulation time: CPU = 301 us, elapsed = 310.898 us.
Important parameter values:
    start = 0 s
    outputstart = 0 s
    stop = 40 ns
    step = 10 ps
    maxstep = 800 ps
    ic = all
    useprevic = no
    skipdc = no
    reltol = 1e-03
    abstol(V) = 1 uV
    abstol(I) = 1 pA
    temp = 100 C
    tnom = 27 C
    tempeffects = all
    errpreset = moderate
    method = trap
    lteratio = 3.5
    relref = sigglobal
    cmin = 0 F
    gmin = 1 pS


Output and IC/nodeset summary:
                 probe  12      
                 save   2       (current)
                 save   3       (voltage)

................9................8................7................6................5................4................3................2................1................0
Number of accepted tran steps =             133

Maximum value achieved for any signal of each quantity: 
V: V(Z) = 707.2 mV
I: I(VX:p) = 29.34 uA
If your circuit contains signals of the same quantity that are vastly different in size (such as high voltage circuitry combined with low voltage control circuitry), you should consider specifying global option `bin_relref=yes'.

~~~~~~~~~~~~~~~~~~~~~~~~~~~~~~~~~
Post-Transient Simulation Summary
~~~~~~~~~~~~~~~~~~~~~~~~~~~~~~~~~
   -   To further speed up simulation, consider
          add ++aps on command line
~~~~~~~~~~~~~~~~~~~~~~~~~~~~~~~~~


During simulation, the CPU load for active processors is :
         0 (60.9 %)      1 (60.6 %)      2 (61.0 %)      3 (61.7 %)
        Total: 244.3%
Initial condition solution time: CPU = 383 us, elapsed = 394.106 us.
Intrinsic tran analysis time:    CPU = 18.194 ms, elapsed = 64.0421 ms.
Total time required for tran analysis `transient1_transient1': CPU = 20.767 ms, elapsed = 66.6261 ms.
Time accumulated: CPU = 15.1978 s, elapsed = 85.5459 s (1m  25.5s).
Peak resident memory used = 136 Mbytes.

         MDL montecarlo: iteration = 95   ( 95.00% ) complete.

*****************************************************************
Transient Analysis `transient1_transient1': time = (0 s -> 40 ns)
*****************************************************************

Opening the PSFXL file teste_spectre/inverter.raw/transient1_transient1.tran.tran ...
DC simulation time: CPU = 297 us, elapsed = 297.785 us.
Important parameter values:
    start = 0 s
    outputstart = 0 s
    stop = 40 ns
    step = 10 ps
    maxstep = 800 ps
    ic = all
    useprevic = no
    skipdc = no
    reltol = 1e-03
    abstol(V) = 1 uV
    abstol(I) = 1 pA
    temp = 100 C
    tnom = 27 C
    tempeffects = all
    errpreset = moderate
    method = trap
    lteratio = 3.5
    relref = sigglobal
    cmin = 0 F
    gmin = 1 pS


Output and IC/nodeset summary:
                 probe  12      
                 save   2       (current)
                 save   3       (voltage)

................9................8................7................6................5................4................3................2................1................0
Number of accepted tran steps =             134

Maximum value achieved for any signal of each quantity: 
V: V(Z) = 706.8 mV
I: I(VX:p) = 28.62 uA
If your circuit contains signals of the same quantity that are vastly different in size (such as high voltage circuitry combined with low voltage control circuitry), you should consider specifying global option `bin_relref=yes'.

~~~~~~~~~~~~~~~~~~~~~~~~~~~~~~~~~
Post-Transient Simulation Summary
~~~~~~~~~~~~~~~~~~~~~~~~~~~~~~~~~
   -   To further speed up simulation, consider
          add ++aps on command line
~~~~~~~~~~~~~~~~~~~~~~~~~~~~~~~~~


During simulation, the CPU load for active processors is :
         0 (61.0 %)      1 (60.6 %)      2 (61.0 %)      3 (61.7 %)
        Total: 244.4%
Initial condition solution time: CPU = 367 us, elapsed = 368.118 us.
Intrinsic tran analysis time:    CPU = 19.459 ms, elapsed = 66.0911 ms.
Total time required for tran analysis `transient1_transient1': CPU = 21.975 ms, elapsed = 68.661 ms.
Time accumulated: CPU = 15.2229 s, elapsed = 85.6562 s (1m  25.7s).
Peak resident memory used = 136 Mbytes.

         MDL montecarlo: iteration = 96   ( 96.00% ) complete.

*****************************************************************
Transient Analysis `transient1_transient1': time = (0 s -> 40 ns)
*****************************************************************

Opening the PSFXL file teste_spectre/inverter.raw/transient1_transient1.tran.tran ...
DC simulation time: CPU = 235 us, elapsed = 236.034 us.
Important parameter values:
    start = 0 s
    outputstart = 0 s
    stop = 40 ns
    step = 10 ps
    maxstep = 800 ps
    ic = all
    useprevic = no
    skipdc = no
    reltol = 1e-03
    abstol(V) = 1 uV
    abstol(I) = 1 pA
    temp = 100 C
    tnom = 27 C
    tempeffects = all
    errpreset = moderate
    method = trap
    lteratio = 3.5
    relref = sigglobal
    cmin = 0 F
    gmin = 1 pS


Output and IC/nodeset summary:
                 probe  12      
                 save   2       (current)
                 save   3       (voltage)

................9................8................7................6................5................4................3................2................1................0
Number of accepted tran steps =             128

Maximum value achieved for any signal of each quantity: 
V: V(Z) = 708.8 mV
I: I(VX:p) = 34.4 uA
If your circuit contains signals of the same quantity that are vastly different in size (such as high voltage circuitry combined with low voltage control circuitry), you should consider specifying global option `bin_relref=yes'.

~~~~~~~~~~~~~~~~~~~~~~~~~~~~~~~~~
Post-Transient Simulation Summary
~~~~~~~~~~~~~~~~~~~~~~~~~~~~~~~~~
   -   To further speed up simulation, consider
          add ++aps on command line
~~~~~~~~~~~~~~~~~~~~~~~~~~~~~~~~~


During simulation, the CPU load for active processors is :
         0 (61.0 %)      1 (60.6 %)      2 (61.1 %)      3 (61.7 %)
        Total: 244.4%
Initial condition solution time: CPU = 293 us, elapsed = 294.924 us.
Intrinsic tran analysis time:    CPU = 19.622 ms, elapsed = 66.1891 ms.
Total time required for tran analysis `transient1_transient1': CPU = 21.639 ms, elapsed = 68.218 ms.
Time accumulated: CPU = 15.2476 s, elapsed = 85.7725 s (1m  25.8s).
Peak resident memory used = 136 Mbytes.

         MDL montecarlo: iteration = 97   ( 97.00% ) complete.

*****************************************************************
Transient Analysis `transient1_transient1': time = (0 s -> 40 ns)
*****************************************************************

Opening the PSFXL file teste_spectre/inverter.raw/transient1_transient1.tran.tran ...
DC simulation time: CPU = 303 us, elapsed = 304.937 us.
Important parameter values:
    start = 0 s
    outputstart = 0 s
    stop = 40 ns
    step = 10 ps
    maxstep = 800 ps
    ic = all
    useprevic = no
    skipdc = no
    reltol = 1e-03
    abstol(V) = 1 uV
    abstol(I) = 1 pA
    temp = 100 C
    tnom = 27 C
    tempeffects = all
    errpreset = moderate
    method = trap
    lteratio = 3.5
    relref = sigglobal
    cmin = 0 F
    gmin = 1 pS


Output and IC/nodeset summary:
                 probe  12      
                 save   2       (current)
                 save   3       (voltage)

................9................8................7................6................5................4................3................2................1................0
Number of accepted tran steps =             125

Maximum value achieved for any signal of each quantity: 
V: V(Z) = 711.2 mV
I: I(VX:p) = 29.79 uA
If your circuit contains signals of the same quantity that are vastly different in size (such as high voltage circuitry combined with low voltage control circuitry), you should consider specifying global option `bin_relref=yes'.

~~~~~~~~~~~~~~~~~~~~~~~~~~~~~~~~~
Post-Transient Simulation Summary
~~~~~~~~~~~~~~~~~~~~~~~~~~~~~~~~~
   -   To further speed up simulation, consider
          add ++aps on command line
~~~~~~~~~~~~~~~~~~~~~~~~~~~~~~~~~


During simulation, the CPU load for active processors is :
         0 (61.0 %)      1 (60.6 %)      2 (61.1 %)      3 (61.7 %)
        Total: 244.4%
Initial condition solution time: CPU = 366 us, elapsed = 366.926 us.
Intrinsic tran analysis time:    CPU = 19.638 ms, elapsed = 121.718 ms.
Total time required for tran analysis `transient1_transient1': CPU = 22.133 ms, elapsed = 124.237 ms.
Time accumulated: CPU = 15.2731 s, elapsed = 85.9667 s (1m  26.0s).
Peak resident memory used = 136 Mbytes.

         MDL montecarlo: iteration = 98   ( 98.00% ) complete.

*****************************************************************
Transient Analysis `transient1_transient1': time = (0 s -> 40 ns)
*****************************************************************

Opening the PSFXL file teste_spectre/inverter.raw/transient1_transient1.tran.tran ...
DC simulation time: CPU = 316 us, elapsed = 324.011 us.
Important parameter values:
    start = 0 s
    outputstart = 0 s
    stop = 40 ns
    step = 10 ps
    maxstep = 800 ps
    ic = all
    useprevic = no
    skipdc = no
    reltol = 1e-03
    abstol(V) = 1 uV
    abstol(I) = 1 pA
    temp = 100 C
    tnom = 27 C
    tempeffects = all
    errpreset = moderate
    method = trap
    lteratio = 3.5
    relref = sigglobal
    cmin = 0 F
    gmin = 1 pS


Output and IC/nodeset summary:
                 probe  12      
                 save   2       (current)
                 save   3       (voltage)

................9................8................7................6................5................4................3................2................1................0
Number of accepted tran steps =             134

Maximum value achieved for any signal of each quantity: 
V: V(Z) = 706.7 mV
I: I(VX:p) = 29.02 uA
If your circuit contains signals of the same quantity that are vastly different in size (such as high voltage circuitry combined with low voltage control circuitry), you should consider specifying global option `bin_relref=yes'.

~~~~~~~~~~~~~~~~~~~~~~~~~~~~~~~~~
Post-Transient Simulation Summary
~~~~~~~~~~~~~~~~~~~~~~~~~~~~~~~~~
   -   To further speed up simulation, consider
          add ++aps on command line
~~~~~~~~~~~~~~~~~~~~~~~~~~~~~~~~~


During simulation, the CPU load for active processors is :
         0 (60.9 %)      1 (60.6 %)      2 (61.0 %)      3 (61.7 %)
        Total: 244.2%
Initial condition solution time: CPU = 407 us, elapsed = 416.994 us.
Intrinsic tran analysis time:    CPU = 19.996 ms, elapsed = 67.2381 ms.
Total time required for tran analysis `transient1_transient1': CPU = 22.32 ms, elapsed = 69.571 ms.
Time accumulated: CPU = 15.2984 s, elapsed = 86.2409 s (1m  26.2s).
Peak resident memory used = 136 Mbytes.

         MDL montecarlo: iteration = 99   ( 99.00% ) complete.

*****************************************************************
Transient Analysis `transient1_transient1': time = (0 s -> 40 ns)
*****************************************************************

Opening the PSFXL file teste_spectre/inverter.raw/transient1_transient1.tran.tran ...
DC simulation time: CPU = 284 us, elapsed = 286.102 us.
Important parameter values:
    start = 0 s
    outputstart = 0 s
    stop = 40 ns
    step = 10 ps
    maxstep = 800 ps
    ic = all
    useprevic = no
    skipdc = no
    reltol = 1e-03
    abstol(V) = 1 uV
    abstol(I) = 1 pA
    temp = 100 C
    tnom = 27 C
    tempeffects = all
    errpreset = moderate
    method = trap
    lteratio = 3.5
    relref = sigglobal
    cmin = 0 F
    gmin = 1 pS


Output and IC/nodeset summary:
                 probe  12      
                 save   2       (current)
                 save   3       (voltage)

................9................8................7................6................5................4................3................2................1................0
Number of accepted tran steps =             133

Maximum value achieved for any signal of each quantity: 
V: V(Z) = 707.5 mV
I: I(VX:p) = 29.79 uA
If your circuit contains signals of the same quantity that are vastly different in size (such as high voltage circuitry combined with low voltage control circuitry), you should consider specifying global option `bin_relref=yes'.

~~~~~~~~~~~~~~~~~~~~~~~~~~~~~~~~~
Post-Transient Simulation Summary
~~~~~~~~~~~~~~~~~~~~~~~~~~~~~~~~~
   -   To further speed up simulation, consider
          add ++aps on command line
~~~~~~~~~~~~~~~~~~~~~~~~~~~~~~~~~


During simulation, the CPU load for active processors is :
         0 (60.9 %)      1 (60.6 %)      2 (61.0 %)      3 (61.6 %)
        Total: 244.1%
Initial condition solution time: CPU = 358 us, elapsed = 360.012 us.
Intrinsic tran analysis time:    CPU = 20.761 ms, elapsed = 58.7261 ms.
Total time required for tran analysis `transient1_transient1': CPU = 23.117 ms, elapsed = 61.089 ms.
Time accumulated: CPU = 15.3245 s, elapsed = 86.4409 s (1m  26.4s).
Peak resident memory used = 136 Mbytes.

         MDL montecarlo: iteration = 100   ( 100.00% ) complete.

name            max             min             mean            stddev          skewness        
iint            -7.40529e-16    -1.22982e-15    -7.89827e-16    7.13901e-17     -4.20034        
total_power     -1.29593e-08    -2.15219e-08    -1.3822e-08     1.24933e-09     -4.20034        
tphl            1.98623e-11     1.09779e-11     1.36155e-11     1.58417e-12     1.09058         
tplh            2.26997e-11     1.21367e-11     1.63642e-11     2.16566e-12     0.624581        


Aggregate audit (3:45:53 PM, Sat May 27, 2023):
Time used: CPU = 15.4 s, elapsed = 86.6 s (1m  26.6s), util. = 17.7%.
Time spent in licensing: elapsed = 22.9 ms.
Peak memory used = 140 Mbytes.
Simulation started at: 3:44:26 PM, Sat May 27, 2023, ended at: 3:45:53 PM, Sat May 27, 2023, with elapsed time (wall clock): 86.6 s (1m  26.6s).
spectre completes with 0 errors, 0 warnings, and 1 notice.
