
Spectre (R) Circuit Simulator
Version 19.1.0.578.isr15 64bit -- 27 Jan 2021
Copyright (C) 1989-2020 Cadence Design Systems, Inc. All rights reserved worldwide. Cadence and Spectre are registered trademarks of Cadence Design Systems, Inc. All others are the property of their respective holders.

Includes RSA BSAFE(R) Cryptographic or Security Protocol Software from RSA Security, Inc.

User: gabriel.jacinto   Host: virmic01   HostID: A296C20A   PID: 3078242
Memory  available: 238.5551 MB  physical: 3.9992 GB
Linux   : Rocky Linux release 8.5 (Green Obsidian)
CPU Type: Intel(R) Core(TM) i3-3240 CPU @ 3.40GHz
All processors running at 3400.0 MHz
        Socket: Processors (Hyperthreaded Processor)
        0:       0 (  2 ),  1 (  3 )
        
System load averages (1min, 5min, 15min) : 33.0 %, 40.5 %, 22.8 %
Hyperthreading is enabled


Simulating `inverter.sp' on virmic01 at 6:13:23 PM, Wed Jun 14, 2023 (process id: 3078242).
Current working directory: /home/100000000981355/Desktop/PIC2020/FINFET/7nm/NOT/Data/sim1
Environment variable:
    SPECTRE_DEFAULTS=-E
Command line:
    /usr/eda/cadence/spectre1910_578/tools.lnx86/bin/spectre -64  \
        -outdir test_spectre inverter.sp

Loading /usr/eda/cadence/spectre1910_578/tools.lnx86/cmi/lib/64bit/5.0/libinfineon_sh.so ...
Loading /usr/eda/cadence/spectre1910_578/tools.lnx86/cmi/lib/64bit/5.0/libphilips_o_sh.so ...
Loading /usr/eda/cadence/spectre1910_578/tools.lnx86/cmi/lib/64bit/5.0/libphilips_sh.so ...
Loading /usr/eda/cadence/spectre1910_578/tools.lnx86/cmi/lib/64bit/5.0/libsparam_sh.so ...
Loading /usr/eda/cadence/spectre1910_578/tools.lnx86/cmi/lib/64bit/5.0/libstmodels_sh.so ...
Reading file:  /home/100000000981355/Desktop/PIC2020/FINFET/7nm/NOT/Data/sim1/inverter.sp
Reading file:  /usr/eda/cadence/spectre1910_578/tools.lnx86/spectre/etc/configs/spectre.cfg
Reading file:  /usr/include/stdc-predef.h
Reading file:  /home/100000000981355/Desktop/PIC2020/FINFET/7nm/NOT/Data/sim1/var.sp
Reading file:  /home/100000000981355/Desktop/PIC2020/FINFET/7nm/NOT/Data/lib/FET_TT.pm
Time for NDB Parsing: CPU = 80.353 ms, elapsed = 164.618 ms.
Time accumulated: CPU = 135.993 ms, elapsed = 164.623 ms.
Peak resident memory used = 101 Mbytes.

Time for Elaboration: CPU = 28.816 ms, elapsed = 29.408 ms.
Time accumulated: CPU = 165.018 ms, elapsed = 194.239 ms.
Peak resident memory used = 111 Mbytes.

Loading /usr/eda/cadence/spectre1910_578/tools.lnx86/spectre/lib/64bit/mdl/libSpectreEH_sh.so ...

Time for EDB Visiting: CPU = 35.356 ms, elapsed = 36.171 ms.
Time accumulated: CPU = 200.572 ms, elapsed = 230.606 ms.
Peak resident memory used = 122 Mbytes.


Global user options:
               save = all

Scoped user options:

Circuit inventory:
              nodes 3
            bsimcmg 2     
          capacitor 1     
            vsource 2     

Analysis and control statement inventory:
         montecarlo 1     
              sweep 1     
               tran 1     

Output statements:
             .probe 0     
           .measure 4     
               save 0     

Time for parsing: CPU = 3.261 ms, elapsed = 47.3289 ms.
Time accumulated: CPU = 204.031 ms, elapsed = 278.131 ms.
Peak resident memory used = 125 Mbytes.

~~~~~~~~~~~~~~~~~~~~~~
Pre-Simulation Summary
~~~~~~~~~~~~~~~~~~~~~~
~~~~~~~~~~~~~~~~~~~~~~


************************************************
MDL montecarlo analysis: iteration = (1 -> 100).
************************************************
Important parameter values:
    seed = 1234
    sampling = standard
    variations = process
    ignoremode = default
    firstrun = 1
    numruns = 100
    nullmfactorcorrelation = no
    donominal = no
    method = standard

*****************************************************************
Transient Analysis `transient1_transient1': time = (0 s -> 40 ns)
*****************************************************************

Opening the PSFXL file test_spectre/inverter.raw/transient1_transient1.tran.tran ...
DC simulation time: CPU = 457 us, elapsed = 458.956 us.
Important parameter values:
    start = 0 s
    outputstart = 0 s
    stop = 40 ns
    step = 10 ps
    maxstep = 800 ps
    ic = all
    useprevic = no
    skipdc = no
    reltol = 1e-03
    abstol(V) = 1 uV
    abstol(I) = 1 pA
    temp = -25 C
    tnom = 27 C
    tempeffects = all
    errpreset = moderate
    method = trap
    lteratio = 3.5
    relref = sigglobal
    cmin = 0 F
    gmin = 1 pS


Output and IC/nodeset summary:
                 probe  12      
                 save   2       (current)
                 save   3       (voltage)

...............9...............8...............7...............6...............5...............4...............3...............2...............1...............0
Number of accepted tran steps =             127

Maximum value achieved for any signal of each quantity: 
V: V(Z) = 710.1 mV
I: I(VX:p) = 39.74 uA
If your circuit contains signals of the same quantity that are vastly different in size (such as high voltage circuitry combined with low voltage control circuitry), you should consider specifying global option `bin_relref=yes'.

~~~~~~~~~~~~~~~~~~~~~~~~~~~~~~~~~
Post-Transient Simulation Summary
~~~~~~~~~~~~~~~~~~~~~~~~~~~~~~~~~
   -   To further speed up simulation, consider
          add ++aps on command line
~~~~~~~~~~~~~~~~~~~~~~~~~~~~~~~~~


During simulation, the CPU load for active processors is :
         0 (59.4 %)      1 (60.6 %)      2 (60.6 %)      3 (68.8 %)
        Total: 249.3%
Initial condition solution time: CPU = 543 us, elapsed = 545.979 us.
Intrinsic tran analysis time:    CPU = 19.733 ms, elapsed = 44.9731 ms.
Total time required for tran analysis `transient1_transient1': CPU = 22.78 ms, elapsed = 48.0399 ms.
Time accumulated: CPU = 240.404 ms, elapsed = 410.213 ms.
Peak resident memory used = 131 Mbytes.

         MDL montecarlo: iteration = 1   ( 1.00% ) complete.

*****************************************************************
Transient Analysis `transient1_transient1': time = (0 s -> 40 ns)
*****************************************************************

Opening the PSFXL file test_spectre/inverter.raw/transient1_transient1.tran.tran ...
DC simulation time: CPU = 329 us, elapsed = 336.17 us.
Important parameter values:
    start = 0 s
    outputstart = 0 s
    stop = 40 ns
    step = 10 ps
    maxstep = 800 ps
    ic = all
    useprevic = no
    skipdc = no
    reltol = 1e-03
    abstol(V) = 1 uV
    abstol(I) = 1 pA
    temp = -25 C
    tnom = 27 C
    tempeffects = all
    errpreset = moderate
    method = trap
    lteratio = 3.5
    relref = sigglobal
    cmin = 0 F
    gmin = 1 pS


Output and IC/nodeset summary:
                 probe  12      
                 save   2       (current)
                 save   3       (voltage)

...............9...............8...............7...............6...............5...............4...............3...............2...............1...............0
Number of accepted tran steps =             134

Maximum value achieved for any signal of each quantity: 
V: V(Z) = 710 mV
I: I(VX:p) = 41.31 uA
If your circuit contains signals of the same quantity that are vastly different in size (such as high voltage circuitry combined with low voltage control circuitry), you should consider specifying global option `bin_relref=yes'.

~~~~~~~~~~~~~~~~~~~~~~~~~~~~~~~~~
Post-Transient Simulation Summary
~~~~~~~~~~~~~~~~~~~~~~~~~~~~~~~~~
   -   To further speed up simulation, consider
          add ++aps on command line
~~~~~~~~~~~~~~~~~~~~~~~~~~~~~~~~~


During simulation, the CPU load for active processors is :
         0 (63.4 %)      1 (62.5 %)      2 (66.7 %)      3 (70.7 %)
        Total: 263.3%
Initial condition solution time: CPU = 401 us, elapsed = 408.888 us.
Intrinsic tran analysis time:    CPU = 22.097 ms, elapsed = 51.296 ms.
Total time required for tran analysis `transient1_transient1': CPU = 24.771 ms, elapsed = 54.244 ms.
Time accumulated: CPU = 268.367 ms, elapsed = 485.101 ms.
Peak resident memory used = 131 Mbytes.

         MDL montecarlo: iteration = 2   ( 2.00% ) complete.

*****************************************************************
Transient Analysis `transient1_transient1': time = (0 s -> 40 ns)
*****************************************************************

Opening the PSFXL file test_spectre/inverter.raw/transient1_transient1.tran.tran ...
DC simulation time: CPU = 305 us, elapsed = 315.189 us.
Important parameter values:
    start = 0 s
    outputstart = 0 s
    stop = 40 ns
    step = 10 ps
    maxstep = 800 ps
    ic = all
    useprevic = no
    skipdc = no
    reltol = 1e-03
    abstol(V) = 1 uV
    abstol(I) = 1 pA
    temp = -25 C
    tnom = 27 C
    tempeffects = all
    errpreset = moderate
    method = trap
    lteratio = 3.5
    relref = sigglobal
    cmin = 0 F
    gmin = 1 pS


Output and IC/nodeset summary:
                 probe  12      
                 save   2       (current)
                 save   3       (voltage)

...............9...............8...............7...............6...............5...............4...............3...............2...............1...............0
Number of accepted tran steps =             119

Maximum value achieved for any signal of each quantity: 
V: V(Z) = 707.6 mV
I: I(VX:p) = 39.58 uA
If your circuit contains signals of the same quantity that are vastly different in size (such as high voltage circuitry combined with low voltage control circuitry), you should consider specifying global option `bin_relref=yes'.

~~~~~~~~~~~~~~~~~~~~~~~~~~~~~~~~~
Post-Transient Simulation Summary
~~~~~~~~~~~~~~~~~~~~~~~~~~~~~~~~~
   -   To further speed up simulation, consider
          add ++aps on command line
~~~~~~~~~~~~~~~~~~~~~~~~~~~~~~~~~


During simulation, the CPU load for active processors is :
         0 (68.8 %)      1 (67.3 %)      2 (70.0 %)      3 (73.5 %)
        Total: 279.6%
Initial condition solution time: CPU = 380 us, elapsed = 391.96 us.
Intrinsic tran analysis time:    CPU = 19.124 ms, elapsed = 44.301 ms.
Total time required for tran analysis `transient1_transient1': CPU = 21.436 ms, elapsed = 46.6218 ms.
Time accumulated: CPU = 292.991 ms, elapsed = 569.178 ms.
Peak resident memory used = 131 Mbytes.

         MDL montecarlo: iteration = 3   ( 3.00% ) complete.

*****************************************************************
Transient Analysis `transient1_transient1': time = (0 s -> 40 ns)
*****************************************************************

Opening the PSFXL file test_spectre/inverter.raw/transient1_transient1.tran.tran ...
DC simulation time: CPU = 302 us, elapsed = 303.984 us.
Important parameter values:
    start = 0 s
    outputstart = 0 s
    stop = 40 ns
    step = 10 ps
    maxstep = 800 ps
    ic = all
    useprevic = no
    skipdc = no
    reltol = 1e-03
    abstol(V) = 1 uV
    abstol(I) = 1 pA
    temp = -25 C
    tnom = 27 C
    tempeffects = all
    errpreset = moderate
    method = trap
    lteratio = 3.5
    relref = sigglobal
    cmin = 0 F
    gmin = 1 pS


Output and IC/nodeset summary:
                 probe  12      
                 save   2       (current)
                 save   3       (voltage)

...............9...............8...............7...............6...............5...............4...............3...............2...............1...............0
Number of accepted tran steps =             121

Maximum value achieved for any signal of each quantity: 
V: V(Z) = 711.5 mV
I: I(VX:p) = 40.03 uA
If your circuit contains signals of the same quantity that are vastly different in size (such as high voltage circuitry combined with low voltage control circuitry), you should consider specifying global option `bin_relref=yes'.

~~~~~~~~~~~~~~~~~~~~~~~~~~~~~~~~~
Post-Transient Simulation Summary
~~~~~~~~~~~~~~~~~~~~~~~~~~~~~~~~~
   -   To further speed up simulation, consider
          add ++aps on command line
~~~~~~~~~~~~~~~~~~~~~~~~~~~~~~~~~


During simulation, the CPU load for active processors is :
         0 (73.2 %)      1 (68.4 %)      2 (72.4 %)      3 (75.4 %)
        Total: 289.5%
Initial condition solution time: CPU = 366 us, elapsed = 369.072 us.
Intrinsic tran analysis time:    CPU = 18.42 ms, elapsed = 48.162 ms.
Total time required for tran analysis `transient1_transient1': CPU = 20.886 ms, elapsed = 50.6392 ms.
Time accumulated: CPU = 317.299 ms, elapsed = 648.805 ms.
Peak resident memory used = 131 Mbytes.

         MDL montecarlo: iteration = 4   ( 4.00% ) complete.

*****************************************************************
Transient Analysis `transient1_transient1': time = (0 s -> 40 ns)
*****************************************************************

Opening the PSFXL file test_spectre/inverter.raw/transient1_transient1.tran.tran ...
DC simulation time: CPU = 323 us, elapsed = 331.879 us.
Important parameter values:
    start = 0 s
    outputstart = 0 s
    stop = 40 ns
    step = 10 ps
    maxstep = 800 ps
    ic = all
    useprevic = no
    skipdc = no
    reltol = 1e-03
    abstol(V) = 1 uV
    abstol(I) = 1 pA
    temp = -25 C
    tnom = 27 C
    tempeffects = all
    errpreset = moderate
    method = trap
    lteratio = 3.5
    relref = sigglobal
    cmin = 0 F
    gmin = 1 pS


Output and IC/nodeset summary:
                 probe  12      
                 save   2       (current)
                 save   3       (voltage)

...............9...............8...............7...............6...............5...............4...............3...............2...............1...............0
Number of accepted tran steps =             134

Maximum value achieved for any signal of each quantity: 
V: V(Z) = 710.9 mV
I: I(VX:p) = 32.04 uA
If your circuit contains signals of the same quantity that are vastly different in size (such as high voltage circuitry combined with low voltage control circuitry), you should consider specifying global option `bin_relref=yes'.

~~~~~~~~~~~~~~~~~~~~~~~~~~~~~~~~~
Post-Transient Simulation Summary
~~~~~~~~~~~~~~~~~~~~~~~~~~~~~~~~~
   -   To further speed up simulation, consider
          add ++aps on command line
~~~~~~~~~~~~~~~~~~~~~~~~~~~~~~~~~


During simulation, the CPU load for active processors is :
         0 (75.4 %)      1 (70.1 %)      2 (73.5 %)      3 (77.3 %)
        Total: 296.3%
Initial condition solution time: CPU = 414 us, elapsed = 424.862 us.
Intrinsic tran analysis time:    CPU = 21.312 ms, elapsed = 57.8821 ms.
Total time required for tran analysis `transient1_transient1': CPU = 23.857 ms, elapsed = 60.4398 ms.
Time accumulated: CPU = 344.244 ms, elapsed = 743.746 ms.
Peak resident memory used = 131 Mbytes.

         MDL montecarlo: iteration = 5   ( 5.00% ) complete.

*****************************************************************
Transient Analysis `transient1_transient1': time = (0 s -> 40 ns)
*****************************************************************

Opening the PSFXL file test_spectre/inverter.raw/transient1_transient1.tran.tran ...
DC simulation time: CPU = 293 us, elapsed = 301.123 us.
Important parameter values:
    start = 0 s
    outputstart = 0 s
    stop = 40 ns
    step = 10 ps
    maxstep = 800 ps
    ic = all
    useprevic = no
    skipdc = no
    reltol = 1e-03
    abstol(V) = 1 uV
    abstol(I) = 1 pA
    temp = -25 C
    tnom = 27 C
    tempeffects = all
    errpreset = moderate
    method = trap
    lteratio = 3.5
    relref = sigglobal
    cmin = 0 F
    gmin = 1 pS


Output and IC/nodeset summary:
                 probe  12      
                 save   2       (current)
                 save   3       (voltage)

...............9...............8...............7...............6...............5...............4...............3...............2...............1...............0
Number of accepted tran steps =             119

Maximum value achieved for any signal of each quantity: 
V: V(Z) = 706.9 mV
I: I(VX:p) = 45.92 uA
If your circuit contains signals of the same quantity that are vastly different in size (such as high voltage circuitry combined with low voltage control circuitry), you should consider specifying global option `bin_relref=yes'.

~~~~~~~~~~~~~~~~~~~~~~~~~~~~~~~~~
Post-Transient Simulation Summary
~~~~~~~~~~~~~~~~~~~~~~~~~~~~~~~~~
   -   To further speed up simulation, consider
          add ++aps on command line
~~~~~~~~~~~~~~~~~~~~~~~~~~~~~~~~~


During simulation, the CPU load for active processors is :
         0 (76.7 %)      1 (70.7 %)      2 (76.3 %)      3 (77.6 %)
        Total: 301.3%
Initial condition solution time: CPU = 361 us, elapsed = 370.026 us.
Intrinsic tran analysis time:    CPU = 16.736 ms, elapsed = 47.1699 ms.
Total time required for tran analysis `transient1_transient1': CPU = 19.092 ms, elapsed = 49.566 ms.
Time accumulated: CPU = 366.416 ms, elapsed = 822.805 ms.
Peak resident memory used = 131 Mbytes.

         MDL montecarlo: iteration = 6   ( 6.00% ) complete.

*****************************************************************
Transient Analysis `transient1_transient1': time = (0 s -> 40 ns)
*****************************************************************

Opening the PSFXL file test_spectre/inverter.raw/transient1_transient1.tran.tran ...
DC simulation time: CPU = 325 us, elapsed = 326.157 us.
Important parameter values:
    start = 0 s
    outputstart = 0 s
    stop = 40 ns
    step = 10 ps
    maxstep = 800 ps
    ic = all
    useprevic = no
    skipdc = no
    reltol = 1e-03
    abstol(V) = 1 uV
    abstol(I) = 1 pA
    temp = -25 C
    tnom = 27 C
    tempeffects = all
    errpreset = moderate
    method = trap
    lteratio = 3.5
    relref = sigglobal
    cmin = 0 F
    gmin = 1 pS


Output and IC/nodeset summary:
                 probe  12      
                 save   2       (current)
                 save   3       (voltage)

...............9...............8...............7...............6...............5...............4...............3...............2...............1...............0
Number of accepted tran steps =             129

Maximum value achieved for any signal of each quantity: 
V: V(Z) = 711.6 mV
I: I(VX:p) = 37.73 uA
If your circuit contains signals of the same quantity that are vastly different in size (such as high voltage circuitry combined with low voltage control circuitry), you should consider specifying global option `bin_relref=yes'.

~~~~~~~~~~~~~~~~~~~~~~~~~~~~~~~~~
Post-Transient Simulation Summary
~~~~~~~~~~~~~~~~~~~~~~~~~~~~~~~~~
   -   To further speed up simulation, consider
          add ++aps on command line
~~~~~~~~~~~~~~~~~~~~~~~~~~~~~~~~~


During simulation, the CPU load for active processors is :
         0 (75.9 %)      1 (72.3 %)      2 (78.3 %)      3 (76.2 %)
        Total: 302.7%
Initial condition solution time: CPU = 409 us, elapsed = 411.987 us.
Intrinsic tran analysis time:    CPU = 18.362 ms, elapsed = 47.744 ms.
Total time required for tran analysis `transient1_transient1': CPU = 20.925 ms, elapsed = 50.3159 ms.
Time accumulated: CPU = 390.43 ms, elapsed = 907.103 ms.
Peak resident memory used = 131 Mbytes.

         MDL montecarlo: iteration = 7   ( 7.00% ) complete.

*****************************************************************
Transient Analysis `transient1_transient1': time = (0 s -> 40 ns)
*****************************************************************

Opening the PSFXL file test_spectre/inverter.raw/transient1_transient1.tran.tran ...
DC simulation time: CPU = 332 us, elapsed = 333.071 us.
Important parameter values:
    start = 0 s
    outputstart = 0 s
    stop = 40 ns
    step = 10 ps
    maxstep = 800 ps
    ic = all
    useprevic = no
    skipdc = no
    reltol = 1e-03
    abstol(V) = 1 uV
    abstol(I) = 1 pA
    temp = -25 C
    tnom = 27 C
    tempeffects = all
    errpreset = moderate
    method = trap
    lteratio = 3.5
    relref = sigglobal
    cmin = 0 F
    gmin = 1 pS


Output and IC/nodeset summary:
                 probe  12      
                 save   2       (current)
                 save   3       (voltage)

...............9...............8...............7...............6...............5...............4...............3...............2...............1...............0
Number of accepted tran steps =             128

Maximum value achieved for any signal of each quantity: 
V: V(Z) = 708.6 mV
I: I(VX:p) = 39.05 uA
If your circuit contains signals of the same quantity that are vastly different in size (such as high voltage circuitry combined with low voltage control circuitry), you should consider specifying global option `bin_relref=yes'.

~~~~~~~~~~~~~~~~~~~~~~~~~~~~~~~~~
Post-Transient Simulation Summary
~~~~~~~~~~~~~~~~~~~~~~~~~~~~~~~~~
   -   To further speed up simulation, consider
          add ++aps on command line
~~~~~~~~~~~~~~~~~~~~~~~~~~~~~~~~~


During simulation, the CPU load for active processors is :
         0 (78.0 %)      1 (75.0 %)      2 (79.6 %)      3 (77.2 %)
        Total: 309.8%
Initial condition solution time: CPU = 414 us, elapsed = 416.04 us.
Intrinsic tran analysis time:    CPU = 20.488 ms, elapsed = 49.309 ms.
Total time required for tran analysis `transient1_transient1': CPU = 23.572 ms, elapsed = 52.4352 ms.
Time accumulated: CPU = 417.218 ms, elapsed = 995.229 ms.
Peak resident memory used = 131 Mbytes.

         MDL montecarlo: iteration = 8   ( 8.00% ) complete.

*****************************************************************
Transient Analysis `transient1_transient1': time = (0 s -> 40 ns)
*****************************************************************

Opening the PSFXL file test_spectre/inverter.raw/transient1_transient1.tran.tran ...
DC simulation time: CPU = 320 us, elapsed = 320.911 us.
Important parameter values:
    start = 0 s
    outputstart = 0 s
    stop = 40 ns
    step = 10 ps
    maxstep = 800 ps
    ic = all
    useprevic = no
    skipdc = no
    reltol = 1e-03
    abstol(V) = 1 uV
    abstol(I) = 1 pA
    temp = -25 C
    tnom = 27 C
    tempeffects = all
    errpreset = moderate
    method = trap
    lteratio = 3.5
    relref = sigglobal
    cmin = 0 F
    gmin = 1 pS


Output and IC/nodeset summary:
                 probe  12      
                 save   2       (current)
                 save   3       (voltage)

...............9...............8...............7...............6...............5...............4...............3...............2...............1...............0
Number of accepted tran steps =             120

Maximum value achieved for any signal of each quantity: 
V: V(Z) = 712.3 mV
I: I(VX:p) = 39.19 uA
If your circuit contains signals of the same quantity that are vastly different in size (such as high voltage circuitry combined with low voltage control circuitry), you should consider specifying global option `bin_relref=yes'.

~~~~~~~~~~~~~~~~~~~~~~~~~~~~~~~~~
Post-Transient Simulation Summary
~~~~~~~~~~~~~~~~~~~~~~~~~~~~~~~~~
   -   To further speed up simulation, consider
          add ++aps on command line
~~~~~~~~~~~~~~~~~~~~~~~~~~~~~~~~~


During simulation, the CPU load for active processors is :
         0 (79.0 %)      1 (76.0 %)      2 (81.4 %)      3 (79.2 %)
        Total: 315.6%
Initial condition solution time: CPU = 399 us, elapsed = 401.974 us.
Intrinsic tran analysis time:    CPU = 19.558 ms, elapsed = 49.2671 ms.
Total time required for tran analysis `transient1_transient1': CPU = 22.267 ms, elapsed = 51.99 ms.
Time accumulated: CPU = 442.709 ms, elapsed = 1.08193 s.
Peak resident memory used = 131 Mbytes.

         MDL montecarlo: iteration = 9   ( 9.00% ) complete.

*****************************************************************
Transient Analysis `transient1_transient1': time = (0 s -> 40 ns)
*****************************************************************

Opening the PSFXL file test_spectre/inverter.raw/transient1_transient1.tran.tran ...
DC simulation time: CPU = 307 us, elapsed = 308.99 us.
Important parameter values:
    start = 0 s
    outputstart = 0 s
    stop = 40 ns
    step = 10 ps
    maxstep = 800 ps
    ic = all
    useprevic = no
    skipdc = no
    reltol = 1e-03
    abstol(V) = 1 uV
    abstol(I) = 1 pA
    temp = -25 C
    tnom = 27 C
    tempeffects = all
    errpreset = moderate
    method = trap
    lteratio = 3.5
    relref = sigglobal
    cmin = 0 F
    gmin = 1 pS


Output and IC/nodeset summary:
                 probe  12      
                 save   2       (current)
                 save   3       (voltage)

...............9...............8...............7...............6...............5...............4...............3...............2...............1...............0
Number of accepted tran steps =             126

Maximum value achieved for any signal of each quantity: 
V: V(Z) = 706.9 mV
I: I(VX:p) = 31.47 uA
If your circuit contains signals of the same quantity that are vastly different in size (such as high voltage circuitry combined with low voltage control circuitry), you should consider specifying global option `bin_relref=yes'.

~~~~~~~~~~~~~~~~~~~~~~~~~~~~~~~~~
Post-Transient Simulation Summary
~~~~~~~~~~~~~~~~~~~~~~~~~~~~~~~~~
   -   To further speed up simulation, consider
          add ++aps on command line
~~~~~~~~~~~~~~~~~~~~~~~~~~~~~~~~~


During simulation, the CPU load for active processors is :
         0 (78.9 %)      1 (76.4 %)      2 (82.7 %)      3 (79.1 %)
        Total: 317.1%
Initial condition solution time: CPU = 383 us, elapsed = 386 us.
Intrinsic tran analysis time:    CPU = 20.334 ms, elapsed = 48.919 ms.
Total time required for tran analysis `transient1_transient1': CPU = 22.925 ms, elapsed = 51.517 ms.
Time accumulated: CPU = 469.227 ms, elapsed = 1.17047 s.
Peak resident memory used = 131 Mbytes.

         MDL montecarlo: iteration = 10   ( 10.00% ) complete.

*****************************************************************
Transient Analysis `transient1_transient1': time = (0 s -> 40 ns)
*****************************************************************

Opening the PSFXL file test_spectre/inverter.raw/transient1_transient1.tran.tran ...
DC simulation time: CPU = 322 us, elapsed = 329.971 us.
Important parameter values:
    start = 0 s
    outputstart = 0 s
    stop = 40 ns
    step = 10 ps
    maxstep = 800 ps
    ic = all
    useprevic = no
    skipdc = no
    reltol = 1e-03
    abstol(V) = 1 uV
    abstol(I) = 1 pA
    temp = -25 C
    tnom = 27 C
    tempeffects = all
    errpreset = moderate
    method = trap
    lteratio = 3.5
    relref = sigglobal
    cmin = 0 F
    gmin = 1 pS


Output and IC/nodeset summary:
                 probe  12      
                 save   2       (current)
                 save   3       (voltage)

...............9...............8...............7...............6...............5...............4...............3...............2...............1...............0
Number of accepted tran steps =             122

Maximum value achieved for any signal of each quantity: 
V: V(Z) = 711.8 mV
I: I(VX:p) = 41.89 uA
If your circuit contains signals of the same quantity that are vastly different in size (such as high voltage circuitry combined with low voltage control circuitry), you should consider specifying global option `bin_relref=yes'.

~~~~~~~~~~~~~~~~~~~~~~~~~~~~~~~~~
Post-Transient Simulation Summary
~~~~~~~~~~~~~~~~~~~~~~~~~~~~~~~~~
   -   To further speed up simulation, consider
          add ++aps on command line
~~~~~~~~~~~~~~~~~~~~~~~~~~~~~~~~~


During simulation, the CPU load for active processors is :
         0 (80.2 %)      1 (76.9 %)      2 (83.1 %)      3 (78.8 %)
        Total: 319.0%
Initial condition solution time: CPU = 396 us, elapsed = 405.073 us.
Intrinsic tran analysis time:    CPU = 20.41 ms, elapsed = 50.1721 ms.
Total time required for tran analysis `transient1_transient1': CPU = 23.039 ms, elapsed = 52.8181 ms.
Time accumulated: CPU = 495.457 ms, elapsed = 1.25219 s.
Peak resident memory used = 131 Mbytes.

         MDL montecarlo: iteration = 11   ( 11.00% ) complete.

*****************************************************************
Transient Analysis `transient1_transient1': time = (0 s -> 40 ns)
*****************************************************************

Opening the PSFXL file test_spectre/inverter.raw/transient1_transient1.tran.tran ...
DC simulation time: CPU = 317 us, elapsed = 316.858 us.
Important parameter values:
    start = 0 s
    outputstart = 0 s
    stop = 40 ns
    step = 10 ps
    maxstep = 800 ps
    ic = all
    useprevic = no
    skipdc = no
    reltol = 1e-03
    abstol(V) = 1 uV
    abstol(I) = 1 pA
    temp = -25 C
    tnom = 27 C
    tempeffects = all
    errpreset = moderate
    method = trap
    lteratio = 3.5
    relref = sigglobal
    cmin = 0 F
    gmin = 1 pS


Output and IC/nodeset summary:
                 probe  12      
                 save   2       (current)
                 save   3       (voltage)

...............9...............8...............7...............6...............5...............4...............3...............2...............1...............0
Number of accepted tran steps =             135

Maximum value achieved for any signal of each quantity: 
V: V(Z) = 707.4 mV
I: I(VX:p) = 43.65 uA
If your circuit contains signals of the same quantity that are vastly different in size (such as high voltage circuitry combined with low voltage control circuitry), you should consider specifying global option `bin_relref=yes'.

~~~~~~~~~~~~~~~~~~~~~~~~~~~~~~~~~
Post-Transient Simulation Summary
~~~~~~~~~~~~~~~~~~~~~~~~~~~~~~~~~
   -   To further speed up simulation, consider
          add ++aps on command line
~~~~~~~~~~~~~~~~~~~~~~~~~~~~~~~~~


During simulation, the CPU load for active processors is :
         0 (81.0 %)      1 (76.4 %)      2 (82.5 %)      3 (78.4 %)
        Total: 318.3%
Initial condition solution time: CPU = 388 us, elapsed = 389.814 us.
Intrinsic tran analysis time:    CPU = 22.499 ms, elapsed = 51.966 ms.
Total time required for tran analysis `transient1_transient1': CPU = 24.995 ms, elapsed = 54.4782 ms.
Time accumulated: CPU = 523.546 ms, elapsed = 1.33725 s.
Peak resident memory used = 131 Mbytes.

         MDL montecarlo: iteration = 12   ( 12.00% ) complete.

*****************************************************************
Transient Analysis `transient1_transient1': time = (0 s -> 40 ns)
*****************************************************************

Opening the PSFXL file test_spectre/inverter.raw/transient1_transient1.tran.tran ...
DC simulation time: CPU = 316 us, elapsed = 316.143 us.
Important parameter values:
    start = 0 s
    outputstart = 0 s
    stop = 40 ns
    step = 10 ps
    maxstep = 800 ps
    ic = all
    useprevic = no
    skipdc = no
    reltol = 1e-03
    abstol(V) = 1 uV
    abstol(I) = 1 pA
    temp = -25 C
    tnom = 27 C
    tempeffects = all
    errpreset = moderate
    method = trap
    lteratio = 3.5
    relref = sigglobal
    cmin = 0 F
    gmin = 1 pS


Output and IC/nodeset summary:
                 probe  12      
                 save   2       (current)
                 save   3       (voltage)

...............9...............8...............7...............6...............5...............4...............3...............2...............1...............0
Number of accepted tran steps =             126

Maximum value achieved for any signal of each quantity: 
V: V(Z) = 711.6 mV
I: I(VX:p) = 26.93 uA
If your circuit contains signals of the same quantity that are vastly different in size (such as high voltage circuitry combined with low voltage control circuitry), you should consider specifying global option `bin_relref=yes'.

~~~~~~~~~~~~~~~~~~~~~~~~~~~~~~~~~
Post-Transient Simulation Summary
~~~~~~~~~~~~~~~~~~~~~~~~~~~~~~~~~
   -   To further speed up simulation, consider
          add ++aps on command line
~~~~~~~~~~~~~~~~~~~~~~~~~~~~~~~~~


During simulation, the CPU load for active processors is :
         0 (81.5 %)      1 (76.5 %)      2 (83.1 %)      3 (78.7 %)
        Total: 319.7%
Initial condition solution time: CPU = 389 us, elapsed = 391.006 us.
Intrinsic tran analysis time:    CPU = 20.661 ms, elapsed = 49.948 ms.
Total time required for tran analysis `transient1_transient1': CPU = 23.562 ms, elapsed = 52.8641 ms.
Time accumulated: CPU = 550.257 ms, elapsed = 1.43016 s.
Peak resident memory used = 131 Mbytes.

         MDL montecarlo: iteration = 13   ( 13.00% ) complete.

*****************************************************************
Transient Analysis `transient1_transient1': time = (0 s -> 40 ns)
*****************************************************************

Opening the PSFXL file test_spectre/inverter.raw/transient1_transient1.tran.tran ...
DC simulation time: CPU = 317 us, elapsed = 319.004 us.
Important parameter values:
    start = 0 s
    outputstart = 0 s
    stop = 40 ns
    step = 10 ps
    maxstep = 800 ps
    ic = all
    useprevic = no
    skipdc = no
    reltol = 1e-03
    abstol(V) = 1 uV
    abstol(I) = 1 pA
    temp = -25 C
    tnom = 27 C
    tempeffects = all
    errpreset = moderate
    method = trap
    lteratio = 3.5
    relref = sigglobal
    cmin = 0 F
    gmin = 1 pS


Output and IC/nodeset summary:
                 probe  12      
                 save   2       (current)
                 save   3       (voltage)

...............9...............8...............7...............6...............5...............4...............3...............2...............1...............0
Number of accepted tran steps =             121

Maximum value achieved for any signal of each quantity: 
V: V(Z) = 706.8 mV
I: I(VX:p) = 42.09 uA
If your circuit contains signals of the same quantity that are vastly different in size (such as high voltage circuitry combined with low voltage control circuitry), you should consider specifying global option `bin_relref=yes'.

~~~~~~~~~~~~~~~~~~~~~~~~~~~~~~~~~
Post-Transient Simulation Summary
~~~~~~~~~~~~~~~~~~~~~~~~~~~~~~~~~
   -   To further speed up simulation, consider
          add ++aps on command line
~~~~~~~~~~~~~~~~~~~~~~~~~~~~~~~~~


During simulation, the CPU load for active processors is :
         0 (81.8 %)      1 (76.4 %)      2 (83.4 %)      3 (79.3 %)
        Total: 321.0%
Initial condition solution time: CPU = 403 us, elapsed = 404.835 us.
Intrinsic tran analysis time:    CPU = 18.916 ms, elapsed = 50.5612 ms.
Total time required for tran analysis `transient1_transient1': CPU = 21.575 ms, elapsed = 53.2291 ms.
Time accumulated: CPU = 575.002 ms, elapsed = 1.52051 s.
Peak resident memory used = 131 Mbytes.

         MDL montecarlo: iteration = 14   ( 14.00% ) complete.

*****************************************************************
Transient Analysis `transient1_transient1': time = (0 s -> 40 ns)
*****************************************************************

Opening the PSFXL file test_spectre/inverter.raw/transient1_transient1.tran.tran ...
DC simulation time: CPU = 322 us, elapsed = 329.018 us.
Important parameter values:
    start = 0 s
    outputstart = 0 s
    stop = 40 ns
    step = 10 ps
    maxstep = 800 ps
    ic = all
    useprevic = no
    skipdc = no
    reltol = 1e-03
    abstol(V) = 1 uV
    abstol(I) = 1 pA
    temp = -25 C
    tnom = 27 C
    tempeffects = all
    errpreset = moderate
    method = trap
    lteratio = 3.5
    relref = sigglobal
    cmin = 0 F
    gmin = 1 pS


Output and IC/nodeset summary:
                 probe  12      
                 save   2       (current)
                 save   3       (voltage)

...............9...............8...............7...............6...............5...............4...............3...............2...............1...............0
Number of accepted tran steps =             133

Maximum value achieved for any signal of each quantity: 
V: V(Z) = 710.2 mV
I: I(VX:p) = 27.17 uA
If your circuit contains signals of the same quantity that are vastly different in size (such as high voltage circuitry combined with low voltage control circuitry), you should consider specifying global option `bin_relref=yes'.

~~~~~~~~~~~~~~~~~~~~~~~~~~~~~~~~~
Post-Transient Simulation Summary
~~~~~~~~~~~~~~~~~~~~~~~~~~~~~~~~~
   -   To further speed up simulation, consider
          add ++aps on command line
~~~~~~~~~~~~~~~~~~~~~~~~~~~~~~~~~


During simulation, the CPU load for active processors is :
         0 (82.8 %)      1 (76.5 %)      2 (83.7 %)      3 (79.1 %)
        Total: 322.0%
Initial condition solution time: CPU = 408 us, elapsed = 416.04 us.
Intrinsic tran analysis time:    CPU = 20.197 ms, elapsed = 51.249 ms.
Total time required for tran analysis `transient1_transient1': CPU = 22.815 ms, elapsed = 53.8819 ms.
Time accumulated: CPU = 601.381 ms, elapsed = 1.60449 s.
Peak resident memory used = 131 Mbytes.

         MDL montecarlo: iteration = 15   ( 15.00% ) complete.

*****************************************************************
Transient Analysis `transient1_transient1': time = (0 s -> 40 ns)
*****************************************************************

Opening the PSFXL file test_spectre/inverter.raw/transient1_transient1.tran.tran ...
DC simulation time: CPU = 295 us, elapsed = 301.838 us.
Important parameter values:
    start = 0 s
    outputstart = 0 s
    stop = 40 ns
    step = 10 ps
    maxstep = 800 ps
    ic = all
    useprevic = no
    skipdc = no
    reltol = 1e-03
    abstol(V) = 1 uV
    abstol(I) = 1 pA
    temp = -25 C
    tnom = 27 C
    tempeffects = all
    errpreset = moderate
    method = trap
    lteratio = 3.5
    relref = sigglobal
    cmin = 0 F
    gmin = 1 pS


Output and IC/nodeset summary:
                 probe  12      
                 save   2       (current)
                 save   3       (voltage)

...............9...............8...............7...............6...............5...............4...............3...............2...............1...............0
Number of accepted tran steps =             134

Maximum value achieved for any signal of each quantity: 
V: V(Z) = 707.7 mV
I: I(VX:p) = 27.56 uA
If your circuit contains signals of the same quantity that are vastly different in size (such as high voltage circuitry combined with low voltage control circuitry), you should consider specifying global option `bin_relref=yes'.

~~~~~~~~~~~~~~~~~~~~~~~~~~~~~~~~~
Post-Transient Simulation Summary
~~~~~~~~~~~~~~~~~~~~~~~~~~~~~~~~~
   -   To further speed up simulation, consider
          add ++aps on command line
~~~~~~~~~~~~~~~~~~~~~~~~~~~~~~~~~


During simulation, the CPU load for active processors is :
         0 (83.4 %)      1 (77.4 %)      2 (84.8 %)      3 (80.5 %)
        Total: 326.1%
Initial condition solution time: CPU = 362 us, elapsed = 367.88 us.
Intrinsic tran analysis time:    CPU = 21.052 ms, elapsed = 63.4332 ms.
Total time required for tran analysis `transient1_transient1': CPU = 23.429 ms, elapsed = 65.8231 ms.
Time accumulated: CPU = 628.106 ms, elapsed = 1.71804 s.
Peak resident memory used = 131 Mbytes.

         MDL montecarlo: iteration = 16   ( 16.00% ) complete.

*****************************************************************
Transient Analysis `transient1_transient1': time = (0 s -> 40 ns)
*****************************************************************

Opening the PSFXL file test_spectre/inverter.raw/transient1_transient1.tran.tran ...
DC simulation time: CPU = 302 us, elapsed = 302.076 us.
Important parameter values:
    start = 0 s
    outputstart = 0 s
    stop = 40 ns
    step = 10 ps
    maxstep = 800 ps
    ic = all
    useprevic = no
    skipdc = no
    reltol = 1e-03
    abstol(V) = 1 uV
    abstol(I) = 1 pA
    temp = -25 C
    tnom = 27 C
    tempeffects = all
    errpreset = moderate
    method = trap
    lteratio = 3.5
    relref = sigglobal
    cmin = 0 F
    gmin = 1 pS


Output and IC/nodeset summary:
                 probe  12      
                 save   2       (current)
                 save   3       (voltage)

...............9...............8...............7...............6...............5...............4...............3...............2...............1...............0
Number of accepted tran steps =             129

Maximum value achieved for any signal of each quantity: 
V: V(Z) = 710.8 mV
I: I(VX:p) = 45.2 uA
If your circuit contains signals of the same quantity that are vastly different in size (such as high voltage circuitry combined with low voltage control circuitry), you should consider specifying global option `bin_relref=yes'.

~~~~~~~~~~~~~~~~~~~~~~~~~~~~~~~~~
Post-Transient Simulation Summary
~~~~~~~~~~~~~~~~~~~~~~~~~~~~~~~~~
   -   To further speed up simulation, consider
          add ++aps on command line
~~~~~~~~~~~~~~~~~~~~~~~~~~~~~~~~~


During simulation, the CPU load for active processors is :
         0 (83.7 %)      1 (78.0 %)      2 (85.1 %)      3 (80.3 %)
        Total: 327.2%
Initial condition solution time: CPU = 367 us, elapsed = 369.072 us.
Intrinsic tran analysis time:    CPU = 21.858 ms, elapsed = 55.5799 ms.
Total time required for tran analysis `transient1_transient1': CPU = 24.335 ms, elapsed = 58.073 ms.
Time accumulated: CPU = 655.841 ms, elapsed = 1.80893 s.
Peak resident memory used = 131 Mbytes.

         MDL montecarlo: iteration = 17   ( 17.00% ) complete.

*****************************************************************
Transient Analysis `transient1_transient1': time = (0 s -> 40 ns)
*****************************************************************

Opening the PSFXL file test_spectre/inverter.raw/transient1_transient1.tran.tran ...
DC simulation time: CPU = 282 us, elapsed = 288.01 us.
Important parameter values:
    start = 0 s
    outputstart = 0 s
    stop = 40 ns
    step = 10 ps
    maxstep = 800 ps
    ic = all
    useprevic = no
    skipdc = no
    reltol = 1e-03
    abstol(V) = 1 uV
    abstol(I) = 1 pA
    temp = -25 C
    tnom = 27 C
    tempeffects = all
    errpreset = moderate
    method = trap
    lteratio = 3.5
    relref = sigglobal
    cmin = 0 F
    gmin = 1 pS


Output and IC/nodeset summary:
                 probe  12      
                 save   2       (current)
                 save   3       (voltage)

...............9...............8...............7...............6...............5...............4...............3...............2...............1...............0
Number of accepted tran steps =             128

Maximum value achieved for any signal of each quantity: 
V: V(Z) = 706.7 mV
I: I(VX:p) = 45.63 uA
If your circuit contains signals of the same quantity that are vastly different in size (such as high voltage circuitry combined with low voltage control circuitry), you should consider specifying global option `bin_relref=yes'.

~~~~~~~~~~~~~~~~~~~~~~~~~~~~~~~~~
Post-Transient Simulation Summary
~~~~~~~~~~~~~~~~~~~~~~~~~~~~~~~~~
   -   To further speed up simulation, consider
          add ++aps on command line
~~~~~~~~~~~~~~~~~~~~~~~~~~~~~~~~~


During simulation, the CPU load for active processors is :
         0 (84.4 %)      1 (78.0 %)      2 (84.7 %)      3 (80.2 %)
        Total: 327.4%
Initial condition solution time: CPU = 355 us, elapsed = 362.873 us.
Intrinsic tran analysis time:    CPU = 19.912 ms, elapsed = 50.1349 ms.
Total time required for tran analysis `transient1_transient1': CPU = 22.205 ms, elapsed = 52.438 ms.
Time accumulated: CPU = 681.519 ms, elapsed = 1.89519 s.
Peak resident memory used = 131 Mbytes.

         MDL montecarlo: iteration = 18   ( 18.00% ) complete.

*****************************************************************
Transient Analysis `transient1_transient1': time = (0 s -> 40 ns)
*****************************************************************

Opening the PSFXL file test_spectre/inverter.raw/transient1_transient1.tran.tran ...
DC simulation time: CPU = 276 us, elapsed = 276.804 us.
Important parameter values:
    start = 0 s
    outputstart = 0 s
    stop = 40 ns
    step = 10 ps
    maxstep = 800 ps
    ic = all
    useprevic = no
    skipdc = no
    reltol = 1e-03
    abstol(V) = 1 uV
    abstol(I) = 1 pA
    temp = -25 C
    tnom = 27 C
    tempeffects = all
    errpreset = moderate
    method = trap
    lteratio = 3.5
    relref = sigglobal
    cmin = 0 F
    gmin = 1 pS


Output and IC/nodeset summary:
                 probe  12      
                 save   2       (current)
                 save   3       (voltage)

...............9...............8...............7...............6...............5...............4...............3...............2...............1...............0
Number of accepted tran steps =             126

Maximum value achieved for any signal of each quantity: 
V: V(Z) = 706.8 mV
I: I(VX:p) = 40.9 uA
If your circuit contains signals of the same quantity that are vastly different in size (such as high voltage circuitry combined with low voltage control circuitry), you should consider specifying global option `bin_relref=yes'.

~~~~~~~~~~~~~~~~~~~~~~~~~~~~~~~~~
Post-Transient Simulation Summary
~~~~~~~~~~~~~~~~~~~~~~~~~~~~~~~~~
   -   To further speed up simulation, consider
          add ++aps on command line
~~~~~~~~~~~~~~~~~~~~~~~~~~~~~~~~~


During simulation, the CPU load for active processors is :
         0 (84.6 %)      1 (78.0 %)      2 (85.3 %)      3 (80.0 %)
        Total: 327.8%
Initial condition solution time: CPU = 340 us, elapsed = 341.892 us.
Intrinsic tran analysis time:    CPU = 19.397 ms, elapsed = 48.9941 ms.
Total time required for tran analysis `transient1_transient1': CPU = 21.792 ms, elapsed = 51.4011 ms.
Time accumulated: CPU = 706.478 ms, elapsed = 1.97791 s.
Peak resident memory used = 131 Mbytes.

         MDL montecarlo: iteration = 19   ( 19.00% ) complete.

*****************************************************************
Transient Analysis `transient1_transient1': time = (0 s -> 40 ns)
*****************************************************************

Opening the PSFXL file test_spectre/inverter.raw/transient1_transient1.tran.tran ...
DC simulation time: CPU = 355 us, elapsed = 359.058 us.
Important parameter values:
    start = 0 s
    outputstart = 0 s
    stop = 40 ns
    step = 10 ps
    maxstep = 800 ps
    ic = all
    useprevic = no
    skipdc = no
    reltol = 1e-03
    abstol(V) = 1 uV
    abstol(I) = 1 pA
    temp = -25 C
    tnom = 27 C
    tempeffects = all
    errpreset = moderate
    method = trap
    lteratio = 3.5
    relref = sigglobal
    cmin = 0 F
    gmin = 1 pS


Output and IC/nodeset summary:
                 probe  12      
                 save   2       (current)
                 save   3       (voltage)

...............9...............8...............7...............6...............5...............4...............3...............2...............1...............0
Number of accepted tran steps =             127

Maximum value achieved for any signal of each quantity: 
V: V(Z) = 707.2 mV
I: I(VX:p) = 36 uA
If your circuit contains signals of the same quantity that are vastly different in size (such as high voltage circuitry combined with low voltage control circuitry), you should consider specifying global option `bin_relref=yes'.

~~~~~~~~~~~~~~~~~~~~~~~~~~~~~~~~~
Post-Transient Simulation Summary
~~~~~~~~~~~~~~~~~~~~~~~~~~~~~~~~~
   -   To further speed up simulation, consider
          add ++aps on command line
~~~~~~~~~~~~~~~~~~~~~~~~~~~~~~~~~


During simulation, the CPU load for active processors is :
         0 (84.8 %)      1 (78.8 %)      2 (85.4 %)      3 (80.8 %)
        Total: 329.8%
Initial condition solution time: CPU = 453 us, elapsed = 463.009 us.
Intrinsic tran analysis time:    CPU = 19.963 ms, elapsed = 48.8989 ms.
Total time required for tran analysis `transient1_transient1': CPU = 22.797 ms, elapsed = 51.765 ms.
Time accumulated: CPU = 733.184 ms, elapsed = 2.0619 s.
Peak resident memory used = 131 Mbytes.

         MDL montecarlo: iteration = 20   ( 20.00% ) complete.

*****************************************************************
Transient Analysis `transient1_transient1': time = (0 s -> 40 ns)
*****************************************************************

Opening the PSFXL file test_spectre/inverter.raw/transient1_transient1.tran.tran ...
DC simulation time: CPU = 288 us, elapsed = 296.831 us.
Important parameter values:
    start = 0 s
    outputstart = 0 s
    stop = 40 ns
    step = 10 ps
    maxstep = 800 ps
    ic = all
    useprevic = no
    skipdc = no
    reltol = 1e-03
    abstol(V) = 1 uV
    abstol(I) = 1 pA
    temp = -25 C
    tnom = 27 C
    tempeffects = all
    errpreset = moderate
    method = trap
    lteratio = 3.5
    relref = sigglobal
    cmin = 0 F
    gmin = 1 pS


Output and IC/nodeset summary:
                 probe  12      
                 save   2       (current)
                 save   3       (voltage)

...............9...............8...............7...............6...............5...............4...............3...............2...............1...............0
Number of accepted tran steps =             128

Maximum value achieved for any signal of each quantity: 
V: V(Z) = 711.5 mV
I: I(VX:p) = 28.37 uA
If your circuit contains signals of the same quantity that are vastly different in size (such as high voltage circuitry combined with low voltage control circuitry), you should consider specifying global option `bin_relref=yes'.

~~~~~~~~~~~~~~~~~~~~~~~~~~~~~~~~~
Post-Transient Simulation Summary
~~~~~~~~~~~~~~~~~~~~~~~~~~~~~~~~~
   -   To further speed up simulation, consider
          add ++aps on command line
~~~~~~~~~~~~~~~~~~~~~~~~~~~~~~~~~


During simulation, the CPU load for active processors is :
         0 (83.9 %)      1 (78.3 %)      2 (85.0 %)      3 (80.5 %)
        Total: 327.7%
Initial condition solution time: CPU = 369 us, elapsed = 378.847 us.
Intrinsic tran analysis time:    CPU = 17.196 ms, elapsed = 46.4089 ms.
Total time required for tran analysis `transient1_transient1': CPU = 19.534 ms, elapsed = 48.7559 ms.
Time accumulated: CPU = 756.259 ms, elapsed = 2.14213 s.
Peak resident memory used = 131 Mbytes.

         MDL montecarlo: iteration = 21   ( 21.00% ) complete.

*****************************************************************
Transient Analysis `transient1_transient1': time = (0 s -> 40 ns)
*****************************************************************

Opening the PSFXL file test_spectre/inverter.raw/transient1_transient1.tran.tran ...
DC simulation time: CPU = 266 us, elapsed = 266.075 us.
Important parameter values:
    start = 0 s
    outputstart = 0 s
    stop = 40 ns
    step = 10 ps
    maxstep = 800 ps
    ic = all
    useprevic = no
    skipdc = no
    reltol = 1e-03
    abstol(V) = 1 uV
    abstol(I) = 1 pA
    temp = -25 C
    tnom = 27 C
    tempeffects = all
    errpreset = moderate
    method = trap
    lteratio = 3.5
    relref = sigglobal
    cmin = 0 F
    gmin = 1 pS


Output and IC/nodeset summary:
                 probe  12      
                 save   2       (current)
                 save   3       (voltage)

...............9...............8...............7...............6...............5...............4...............3...............2...............1...............0
Number of accepted tran steps =             135

Maximum value achieved for any signal of each quantity: 
V: V(Z) = 709.6 mV
I: I(VX:p) = 32.97 uA
If your circuit contains signals of the same quantity that are vastly different in size (such as high voltage circuitry combined with low voltage control circuitry), you should consider specifying global option `bin_relref=yes'.

~~~~~~~~~~~~~~~~~~~~~~~~~~~~~~~~~
Post-Transient Simulation Summary
~~~~~~~~~~~~~~~~~~~~~~~~~~~~~~~~~
   -   To further speed up simulation, consider
          add ++aps on command line
~~~~~~~~~~~~~~~~~~~~~~~~~~~~~~~~~


During simulation, the CPU load for active processors is :
         0 (84.0 %)      1 (78.6 %)      2 (84.7 %)      3 (80.5 %)
        Total: 327.8%
Initial condition solution time: CPU = 323 us, elapsed = 326.157 us.
Intrinsic tran analysis time:    CPU = 21.569 ms, elapsed = 51.399 ms.
Total time required for tran analysis `transient1_transient1': CPU = 23.778 ms, elapsed = 53.6141 ms.
Time accumulated: CPU = 783.194 ms, elapsed = 2.23034 s.
Peak resident memory used = 131 Mbytes.

         MDL montecarlo: iteration = 22   ( 22.00% ) complete.

*****************************************************************
Transient Analysis `transient1_transient1': time = (0 s -> 40 ns)
*****************************************************************

Opening the PSFXL file test_spectre/inverter.raw/transient1_transient1.tran.tran ...
DC simulation time: CPU = 299 us, elapsed = 299.931 us.
Important parameter values:
    start = 0 s
    outputstart = 0 s
    stop = 40 ns
    step = 10 ps
    maxstep = 800 ps
    ic = all
    useprevic = no
    skipdc = no
    reltol = 1e-03
    abstol(V) = 1 uV
    abstol(I) = 1 pA
    temp = -25 C
    tnom = 27 C
    tempeffects = all
    errpreset = moderate
    method = trap
    lteratio = 3.5
    relref = sigglobal
    cmin = 0 F
    gmin = 1 pS


Output and IC/nodeset summary:
                 probe  12      
                 save   2       (current)
                 save   3       (voltage)

...............9...............8...............7...............6...............5...............4...............3...............2...............1...............0
Number of accepted tran steps =             135

Maximum value achieved for any signal of each quantity: 
V: V(Z) = 709.5 mV
I: I(VX:p) = 36.61 uA
If your circuit contains signals of the same quantity that are vastly different in size (such as high voltage circuitry combined with low voltage control circuitry), you should consider specifying global option `bin_relref=yes'.

~~~~~~~~~~~~~~~~~~~~~~~~~~~~~~~~~
Post-Transient Simulation Summary
~~~~~~~~~~~~~~~~~~~~~~~~~~~~~~~~~
   -   To further speed up simulation, consider
          add ++aps on command line
~~~~~~~~~~~~~~~~~~~~~~~~~~~~~~~~~


During simulation, the CPU load for active processors is :
         0 (84.2 %)      1 (78.5 %)      2 (84.8 %)      3 (80.7 %)
        Total: 328.2%
Initial condition solution time: CPU = 371 us, elapsed = 371.933 us.
Intrinsic tran analysis time:    CPU = 20.836 ms, elapsed = 51.3749 ms.
Total time required for tran analysis `transient1_transient1': CPU = 23.345 ms, elapsed = 53.8969 ms.
Time accumulated: CPU = 809.709 ms, elapsed = 2.31403 s.
Peak resident memory used = 131 Mbytes.

         MDL montecarlo: iteration = 23   ( 23.00% ) complete.

*****************************************************************
Transient Analysis `transient1_transient1': time = (0 s -> 40 ns)
*****************************************************************

Opening the PSFXL file test_spectre/inverter.raw/transient1_transient1.tran.tran ...
DC simulation time: CPU = 302 us, elapsed = 309.944 us.
Important parameter values:
    start = 0 s
    outputstart = 0 s
    stop = 40 ns
    step = 10 ps
    maxstep = 800 ps
    ic = all
    useprevic = no
    skipdc = no
    reltol = 1e-03
    abstol(V) = 1 uV
    abstol(I) = 1 pA
    temp = -25 C
    tnom = 27 C
    tempeffects = all
    errpreset = moderate
    method = trap
    lteratio = 3.5
    relref = sigglobal
    cmin = 0 F
    gmin = 1 pS


Output and IC/nodeset summary:
                 probe  12      
                 save   2       (current)
                 save   3       (voltage)

...............9...............8...............7...............6...............5...............4...............3...............2...............1...............0
Number of accepted tran steps =             134

Maximum value achieved for any signal of each quantity: 
V: V(Z) = 710.9 mV
I: I(VX:p) = 34.32 uA
If your circuit contains signals of the same quantity that are vastly different in size (such as high voltage circuitry combined with low voltage control circuitry), you should consider specifying global option `bin_relref=yes'.

~~~~~~~~~~~~~~~~~~~~~~~~~~~~~~~~~
Post-Transient Simulation Summary
~~~~~~~~~~~~~~~~~~~~~~~~~~~~~~~~~
   -   To further speed up simulation, consider
          add ++aps on command line
~~~~~~~~~~~~~~~~~~~~~~~~~~~~~~~~~


During simulation, the CPU load for active processors is :
         0 (84.3 %)      1 (78.4 %)      2 (85.3 %)      3 (80.5 %)
        Total: 328.6%
Initial condition solution time: CPU = 383 us, elapsed = 393.152 us.
Intrinsic tran analysis time:    CPU = 20.806 ms, elapsed = 49.603 ms.
Total time required for tran analysis `transient1_transient1': CPU = 23.648 ms, elapsed = 52.474 ms.
Time accumulated: CPU = 836.637 ms, elapsed = 2.3964 s.
Peak resident memory used = 131 Mbytes.

         MDL montecarlo: iteration = 24   ( 24.00% ) complete.

*****************************************************************
Transient Analysis `transient1_transient1': time = (0 s -> 40 ns)
*****************************************************************

Opening the PSFXL file test_spectre/inverter.raw/transient1_transient1.tran.tran ...
DC simulation time: CPU = 272 us, elapsed = 272.989 us.
Important parameter values:
    start = 0 s
    outputstart = 0 s
    stop = 40 ns
    step = 10 ps
    maxstep = 800 ps
    ic = all
    useprevic = no
    skipdc = no
    reltol = 1e-03
    abstol(V) = 1 uV
    abstol(I) = 1 pA
    temp = -25 C
    tnom = 27 C
    tempeffects = all
    errpreset = moderate
    method = trap
    lteratio = 3.5
    relref = sigglobal
    cmin = 0 F
    gmin = 1 pS


Output and IC/nodeset summary:
                 probe  12      
                 save   2       (current)
                 save   3       (voltage)

...............9...............8...............7...............6...............5...............4...............3...............2...............1...............0
Number of accepted tran steps =             125

Maximum value achieved for any signal of each quantity: 
V: V(Z) = 712 mV
I: I(VX:p) = 26.47 uA
If your circuit contains signals of the same quantity that are vastly different in size (such as high voltage circuitry combined with low voltage control circuitry), you should consider specifying global option `bin_relref=yes'.

~~~~~~~~~~~~~~~~~~~~~~~~~~~~~~~~~
Post-Transient Simulation Summary
~~~~~~~~~~~~~~~~~~~~~~~~~~~~~~~~~
   -   To further speed up simulation, consider
          add ++aps on command line
~~~~~~~~~~~~~~~~~~~~~~~~~~~~~~~~~


During simulation, the CPU load for active processors is :
         0 (84.5 %)      1 (78.9 %)      2 (85.1 %)      3 (80.8 %)
        Total: 329.3%
Initial condition solution time: CPU = 329 us, elapsed = 329.971 us.
Intrinsic tran analysis time:    CPU = 19.918 ms, elapsed = 60.4069 ms.
Total time required for tran analysis `transient1_transient1': CPU = 22.244 ms, elapsed = 62.7432 ms.
Time accumulated: CPU = 861.924 ms, elapsed = 2.48993 s.
Peak resident memory used = 131 Mbytes.

         MDL montecarlo: iteration = 25   ( 25.00% ) complete.

*****************************************************************
Transient Analysis `transient1_transient1': time = (0 s -> 40 ns)
*****************************************************************

Opening the PSFXL file test_spectre/inverter.raw/transient1_transient1.tran.tran ...
DC simulation time: CPU = 333 us, elapsed = 334.978 us.
Important parameter values:
    start = 0 s
    outputstart = 0 s
    stop = 40 ns
    step = 10 ps
    maxstep = 800 ps
    ic = all
    useprevic = no
    skipdc = no
    reltol = 1e-03
    abstol(V) = 1 uV
    abstol(I) = 1 pA
    temp = -25 C
    tnom = 27 C
    tempeffects = all
    errpreset = moderate
    method = trap
    lteratio = 3.5
    relref = sigglobal
    cmin = 0 F
    gmin = 1 pS


Output and IC/nodeset summary:
                 probe  12      
                 save   2       (current)
                 save   3       (voltage)

...............9...............8...............7...............6...............5...............4...............3...............2...............1...............0
Number of accepted tran steps =             128

Maximum value achieved for any signal of each quantity: 
V: V(Z) = 708.6 mV
I: I(VX:p) = 25.86 uA
If your circuit contains signals of the same quantity that are vastly different in size (such as high voltage circuitry combined with low voltage control circuitry), you should consider specifying global option `bin_relref=yes'.

~~~~~~~~~~~~~~~~~~~~~~~~~~~~~~~~~
Post-Transient Simulation Summary
~~~~~~~~~~~~~~~~~~~~~~~~~~~~~~~~~
   -   To further speed up simulation, consider
          add ++aps on command line
~~~~~~~~~~~~~~~~~~~~~~~~~~~~~~~~~


During simulation, the CPU load for active processors is :
         0 (85.0 %)      1 (79.1 %)      2 (85.1 %)      3 (80.6 %)
        Total: 329.8%
Initial condition solution time: CPU = 425 us, elapsed = 427.961 us.
Intrinsic tran analysis time:    CPU = 19.708 ms, elapsed = 48.785 ms.
Total time required for tran analysis `transient1_transient1': CPU = 22.72 ms, elapsed = 51.816 ms.
Time accumulated: CPU = 887.983 ms, elapsed = 2.57111 s.
Peak resident memory used = 131 Mbytes.

         MDL montecarlo: iteration = 26   ( 26.00% ) complete.

*****************************************************************
Transient Analysis `transient1_transient1': time = (0 s -> 40 ns)
*****************************************************************

Opening the PSFXL file test_spectre/inverter.raw/transient1_transient1.tran.tran ...
DC simulation time: CPU = 316 us, elapsed = 315.905 us.
Important parameter values:
    start = 0 s
    outputstart = 0 s
    stop = 40 ns
    step = 10 ps
    maxstep = 800 ps
    ic = all
    useprevic = no
    skipdc = no
    reltol = 1e-03
    abstol(V) = 1 uV
    abstol(I) = 1 pA
    temp = -25 C
    tnom = 27 C
    tempeffects = all
    errpreset = moderate
    method = trap
    lteratio = 3.5
    relref = sigglobal
    cmin = 0 F
    gmin = 1 pS


Output and IC/nodeset summary:
                 probe  12      
                 save   2       (current)
                 save   3       (voltage)

...............9...............8...............7...............6...............5...............4...............3...............2...............1...............0
Number of accepted tran steps =             134

Maximum value achieved for any signal of each quantity: 
V: V(Z) = 710.9 mV
I: I(VX:p) = 36.37 uA
If your circuit contains signals of the same quantity that are vastly different in size (such as high voltage circuitry combined with low voltage control circuitry), you should consider specifying global option `bin_relref=yes'.

~~~~~~~~~~~~~~~~~~~~~~~~~~~~~~~~~
Post-Transient Simulation Summary
~~~~~~~~~~~~~~~~~~~~~~~~~~~~~~~~~
   -   To further speed up simulation, consider
          add ++aps on command line
~~~~~~~~~~~~~~~~~~~~~~~~~~~~~~~~~


During simulation, the CPU load for active processors is :
         0 (84.7 %)      1 (79.4 %)      2 (85.2 %)      3 (80.8 %)
        Total: 330.1%
Initial condition solution time: CPU = 385 us, elapsed = 386 us.
Intrinsic tran analysis time:    CPU = 20.544 ms, elapsed = 49.7351 ms.
Total time required for tran analysis `transient1_transient1': CPU = 23.103 ms, elapsed = 52.3009 ms.
Time accumulated: CPU = 914.21 ms, elapsed = 2.65506 s.
Peak resident memory used = 131 Mbytes.

         MDL montecarlo: iteration = 27   ( 27.00% ) complete.

*****************************************************************
Transient Analysis `transient1_transient1': time = (0 s -> 40 ns)
*****************************************************************

Opening the PSFXL file test_spectre/inverter.raw/transient1_transient1.tran.tran ...
DC simulation time: CPU = 281 us, elapsed = 288.963 us.
Important parameter values:
    start = 0 s
    outputstart = 0 s
    stop = 40 ns
    step = 10 ps
    maxstep = 800 ps
    ic = all
    useprevic = no
    skipdc = no
    reltol = 1e-03
    abstol(V) = 1 uV
    abstol(I) = 1 pA
    temp = -25 C
    tnom = 27 C
    tempeffects = all
    errpreset = moderate
    method = trap
    lteratio = 3.5
    relref = sigglobal
    cmin = 0 F
    gmin = 1 pS


Output and IC/nodeset summary:
                 probe  12      
                 save   2       (current)
                 save   3       (voltage)

...............9...............8...............7...............6...............5...............4...............3...............2...............1...............0
Number of accepted tran steps =             119

Maximum value achieved for any signal of each quantity: 
V: V(Z) = 707 mV
I: I(VX:p) = 40.08 uA
If your circuit contains signals of the same quantity that are vastly different in size (such as high voltage circuitry combined with low voltage control circuitry), you should consider specifying global option `bin_relref=yes'.

~~~~~~~~~~~~~~~~~~~~~~~~~~~~~~~~~
Post-Transient Simulation Summary
~~~~~~~~~~~~~~~~~~~~~~~~~~~~~~~~~
   -   To further speed up simulation, consider
          add ++aps on command line
~~~~~~~~~~~~~~~~~~~~~~~~~~~~~~~~~


During simulation, the CPU load for active processors is :
         0 (84.7 %)      1 (79.3 %)      2 (84.9 %)      3 (80.8 %)
        Total: 329.7%
Initial condition solution time: CPU = 353 us, elapsed = 362.873 us.
Intrinsic tran analysis time:    CPU = 21.371 ms, elapsed = 51.6758 ms.
Total time required for tran analysis `transient1_transient1': CPU = 23.788 ms, elapsed = 54.178 ms.
Time accumulated: CPU = 940.844 ms, elapsed = 2.74319 s.
Peak resident memory used = 131 Mbytes.

         MDL montecarlo: iteration = 28   ( 28.00% ) complete.

*****************************************************************
Transient Analysis `transient1_transient1': time = (0 s -> 40 ns)
*****************************************************************

Opening the PSFXL file test_spectre/inverter.raw/transient1_transient1.tran.tran ...
DC simulation time: CPU = 308 us, elapsed = 307.798 us.
Important parameter values:
    start = 0 s
    outputstart = 0 s
    stop = 40 ns
    step = 10 ps
    maxstep = 800 ps
    ic = all
    useprevic = no
    skipdc = no
    reltol = 1e-03
    abstol(V) = 1 uV
    abstol(I) = 1 pA
    temp = -25 C
    tnom = 27 C
    tempeffects = all
    errpreset = moderate
    method = trap
    lteratio = 3.5
    relref = sigglobal
    cmin = 0 F
    gmin = 1 pS


Output and IC/nodeset summary:
                 probe  12      
                 save   2       (current)
                 save   3       (voltage)

...............9...............8...............7...............6...............5...............4...............3...............2...............1...............0
Number of accepted tran steps =             129

Maximum value achieved for any signal of each quantity: 
V: V(Z) = 710.8 mV
I: I(VX:p) = 41.41 uA
If your circuit contains signals of the same quantity that are vastly different in size (such as high voltage circuitry combined with low voltage control circuitry), you should consider specifying global option `bin_relref=yes'.

~~~~~~~~~~~~~~~~~~~~~~~~~~~~~~~~~
Post-Transient Simulation Summary
~~~~~~~~~~~~~~~~~~~~~~~~~~~~~~~~~
   -   To further speed up simulation, consider
          add ++aps on command line
~~~~~~~~~~~~~~~~~~~~~~~~~~~~~~~~~


During simulation, the CPU load for active processors is :
         0 (84.9 %)      1 (79.6 %)      2 (85.1 %)      3 (81.0 %)
        Total: 330.5%
Initial condition solution time: CPU = 377 us, elapsed = 391.006 us.
Intrinsic tran analysis time:    CPU = 19.568 ms, elapsed = 49.3979 ms.
Total time required for tran analysis `transient1_transient1': CPU = 21.98 ms, elapsed = 51.8241 ms.
Time accumulated: CPU = 966.17 ms, elapsed = 2.83135 s.
Peak resident memory used = 131 Mbytes.

         MDL montecarlo: iteration = 29   ( 29.00% ) complete.

*****************************************************************
Transient Analysis `transient1_transient1': time = (0 s -> 40 ns)
*****************************************************************

Opening the PSFXL file test_spectre/inverter.raw/transient1_transient1.tran.tran ...
DC simulation time: CPU = 286 us, elapsed = 288.01 us.
Important parameter values:
    start = 0 s
    outputstart = 0 s
    stop = 40 ns
    step = 10 ps
    maxstep = 800 ps
    ic = all
    useprevic = no
    skipdc = no
    reltol = 1e-03
    abstol(V) = 1 uV
    abstol(I) = 1 pA
    temp = -25 C
    tnom = 27 C
    tempeffects = all
    errpreset = moderate
    method = trap
    lteratio = 3.5
    relref = sigglobal
    cmin = 0 F
    gmin = 1 pS


Output and IC/nodeset summary:
                 probe  12      
                 save   2       (current)
                 save   3       (voltage)

...............9...............8...............7...............6...............5...............4...............3...............2...............1...............0
Number of accepted tran steps =             125

Maximum value achieved for any signal of each quantity: 
V: V(Z) = 712 mV
I: I(VX:p) = 27.41 uA
If your circuit contains signals of the same quantity that are vastly different in size (such as high voltage circuitry combined with low voltage control circuitry), you should consider specifying global option `bin_relref=yes'.

~~~~~~~~~~~~~~~~~~~~~~~~~~~~~~~~~
Post-Transient Simulation Summary
~~~~~~~~~~~~~~~~~~~~~~~~~~~~~~~~~
   -   To further speed up simulation, consider
          add ++aps on command line
~~~~~~~~~~~~~~~~~~~~~~~~~~~~~~~~~


During simulation, the CPU load for active processors is :
         0 (85.0 %)      1 (79.5 %)      2 (85.5 %)      3 (81.3 %)
        Total: 331.2%
Initial condition solution time: CPU = 353 us, elapsed = 355.005 us.
Intrinsic tran analysis time:    CPU = 18.433 ms, elapsed = 42.3589 ms.
Total time required for tran analysis `transient1_transient1': CPU = 20.751 ms, elapsed = 44.6849 ms.
Time accumulated: CPU = 990.007 ms, elapsed = 2.91568 s.
Peak resident memory used = 131 Mbytes.

         MDL montecarlo: iteration = 30   ( 30.00% ) complete.

*****************************************************************
Transient Analysis `transient1_transient1': time = (0 s -> 40 ns)
*****************************************************************

Opening the PSFXL file test_spectre/inverter.raw/transient1_transient1.tran.tran ...
DC simulation time: CPU = 282 us, elapsed = 283.003 us.
Important parameter values:
    start = 0 s
    outputstart = 0 s
    stop = 40 ns
    step = 10 ps
    maxstep = 800 ps
    ic = all
    useprevic = no
    skipdc = no
    reltol = 1e-03
    abstol(V) = 1 uV
    abstol(I) = 1 pA
    temp = -25 C
    tnom = 27 C
    tempeffects = all
    errpreset = moderate
    method = trap
    lteratio = 3.5
    relref = sigglobal
    cmin = 0 F
    gmin = 1 pS


Output and IC/nodeset summary:
                 probe  12      
                 save   2       (current)
                 save   3       (voltage)

...............9...............8...............7...............6...............5...............4...............3...............2...............1...............0
Number of accepted tran steps =             129

Maximum value achieved for any signal of each quantity: 
V: V(Z) = 711.9 mV
I: I(VX:p) = 36.99 uA
If your circuit contains signals of the same quantity that are vastly different in size (such as high voltage circuitry combined with low voltage control circuitry), you should consider specifying global option `bin_relref=yes'.

~~~~~~~~~~~~~~~~~~~~~~~~~~~~~~~~~
Post-Transient Simulation Summary
~~~~~~~~~~~~~~~~~~~~~~~~~~~~~~~~~
   -   To further speed up simulation, consider
          add ++aps on command line
~~~~~~~~~~~~~~~~~~~~~~~~~~~~~~~~~


During simulation, the CPU load for active processors is :
         0 (85.2 %)      1 (80.1 %)      2 (85.6 %)      3 (81.8 %)
        Total: 332.7%
Initial condition solution time: CPU = 343 us, elapsed = 344.038 us.
Intrinsic tran analysis time:    CPU = 19.034 ms, elapsed = 54.5759 ms.
Total time required for tran analysis `transient1_transient1': CPU = 21.298 ms, elapsed = 56.8449 ms.
Time accumulated: CPU = 1.01458 s, elapsed = 3.01423 s.
Peak resident memory used = 131 Mbytes.

         MDL montecarlo: iteration = 31   ( 31.00% ) complete.

*****************************************************************
Transient Analysis `transient1_transient1': time = (0 s -> 40 ns)
*****************************************************************

Opening the PSFXL file test_spectre/inverter.raw/transient1_transient1.tran.tran ...
DC simulation time: CPU = 313 us, elapsed = 319.004 us.
Important parameter values:
    start = 0 s
    outputstart = 0 s
    stop = 40 ns
    step = 10 ps
    maxstep = 800 ps
    ic = all
    useprevic = no
    skipdc = no
    reltol = 1e-03
    abstol(V) = 1 uV
    abstol(I) = 1 pA
    temp = -25 C
    tnom = 27 C
    tempeffects = all
    errpreset = moderate
    method = trap
    lteratio = 3.5
    relref = sigglobal
    cmin = 0 F
    gmin = 1 pS


Output and IC/nodeset summary:
                 probe  12      
                 save   2       (current)
                 save   3       (voltage)

...............9...............8...............7...............6...............5...............4...............3...............2...............1...............0
Number of accepted tran steps =             134

Maximum value achieved for any signal of each quantity: 
V: V(Z) = 710.5 mV
I: I(VX:p) = 41.01 uA
If your circuit contains signals of the same quantity that are vastly different in size (such as high voltage circuitry combined with low voltage control circuitry), you should consider specifying global option `bin_relref=yes'.

~~~~~~~~~~~~~~~~~~~~~~~~~~~~~~~~~
Post-Transient Simulation Summary
~~~~~~~~~~~~~~~~~~~~~~~~~~~~~~~~~
   -   To further speed up simulation, consider
          add ++aps on command line
~~~~~~~~~~~~~~~~~~~~~~~~~~~~~~~~~


During simulation, the CPU load for active processors is :
         0 (85.5 %)      1 (80.3 %)      2 (86.0 %)      3 (82.0 %)
        Total: 333.9%
Initial condition solution time: CPU = 384 us, elapsed = 393.152 us.
Intrinsic tran analysis time:    CPU = 19.67 ms, elapsed = 41.117 ms.
Total time required for tran analysis `transient1_transient1': CPU = 22.206 ms, elapsed = 43.6621 ms.
Time accumulated: CPU = 1.03995 s, elapsed = 3.08378 s.
Peak resident memory used = 131 Mbytes.

         MDL montecarlo: iteration = 32   ( 32.00% ) complete.

*****************************************************************
Transient Analysis `transient1_transient1': time = (0 s -> 40 ns)
*****************************************************************

Opening the PSFXL file test_spectre/inverter.raw/transient1_transient1.tran.tran ...
DC simulation time: CPU = 283 us, elapsed = 285.149 us.
Important parameter values:
    start = 0 s
    outputstart = 0 s
    stop = 40 ns
    step = 10 ps
    maxstep = 800 ps
    ic = all
    useprevic = no
    skipdc = no
    reltol = 1e-03
    abstol(V) = 1 uV
    abstol(I) = 1 pA
    temp = -25 C
    tnom = 27 C
    tempeffects = all
    errpreset = moderate
    method = trap
    lteratio = 3.5
    relref = sigglobal
    cmin = 0 F
    gmin = 1 pS


Output and IC/nodeset summary:
                 probe  12      
                 save   2       (current)
                 save   3       (voltage)

...............9...............8...............7...............6...............5...............4...............3...............2...............1...............0
Number of accepted tran steps =             125

Maximum value achieved for any signal of each quantity: 
V: V(Z) = 711.9 mV
I: I(VX:p) = 27.37 uA
If your circuit contains signals of the same quantity that are vastly different in size (such as high voltage circuitry combined with low voltage control circuitry), you should consider specifying global option `bin_relref=yes'.

~~~~~~~~~~~~~~~~~~~~~~~~~~~~~~~~~
Post-Transient Simulation Summary
~~~~~~~~~~~~~~~~~~~~~~~~~~~~~~~~~
   -   To further speed up simulation, consider
          add ++aps on command line
~~~~~~~~~~~~~~~~~~~~~~~~~~~~~~~~~


During simulation, the CPU load for active processors is :
         0 (85.3 %)      1 (80.5 %)      2 (85.4 %)      3 (81.9 %)
        Total: 333.1%
Initial condition solution time: CPU = 353 us, elapsed = 355.959 us.
Intrinsic tran analysis time:    CPU = 19.093 ms, elapsed = 39.7489 ms.
Total time required for tran analysis `transient1_transient1': CPU = 21.733 ms, elapsed = 42.4161 ms.
Time accumulated: CPU = 1.06518 s, elapsed = 3.1648 s.
Peak resident memory used = 131 Mbytes.

         MDL montecarlo: iteration = 33   ( 33.00% ) complete.

*****************************************************************
Transient Analysis `transient1_transient1': time = (0 s -> 40 ns)
*****************************************************************

Opening the PSFXL file test_spectre/inverter.raw/transient1_transient1.tran.tran ...
DC simulation time: CPU = 316 us, elapsed = 317.097 us.
Important parameter values:
    start = 0 s
    outputstart = 0 s
    stop = 40 ns
    step = 10 ps
    maxstep = 800 ps
    ic = all
    useprevic = no
    skipdc = no
    reltol = 1e-03
    abstol(V) = 1 uV
    abstol(I) = 1 pA
    temp = -25 C
    tnom = 27 C
    tempeffects = all
    errpreset = moderate
    method = trap
    lteratio = 3.5
    relref = sigglobal
    cmin = 0 F
    gmin = 1 pS


Output and IC/nodeset summary:
                 probe  12      
                 save   2       (current)
                 save   3       (voltage)

...............9...............8...............7...............6...............5...............4...............3...............2...............1...............0
Number of accepted tran steps =             129

Maximum value achieved for any signal of each quantity: 
V: V(Z) = 711.7 mV
I: I(VX:p) = 37.64 uA
If your circuit contains signals of the same quantity that are vastly different in size (such as high voltage circuitry combined with low voltage control circuitry), you should consider specifying global option `bin_relref=yes'.

~~~~~~~~~~~~~~~~~~~~~~~~~~~~~~~~~
Post-Transient Simulation Summary
~~~~~~~~~~~~~~~~~~~~~~~~~~~~~~~~~
   -   To further speed up simulation, consider
          add ++aps on command line
~~~~~~~~~~~~~~~~~~~~~~~~~~~~~~~~~


During simulation, the CPU load for active processors is :
         0 (85.4 %)      1 (80.4 %)      2 (85.5 %)      3 (82.3 %)
        Total: 333.6%
Initial condition solution time: CPU = 383 us, elapsed = 386 us.
Intrinsic tran analysis time:    CPU = 21.547 ms, elapsed = 54.1708 ms.
Total time required for tran analysis `transient1_transient1': CPU = 24.328 ms, elapsed = 56.9689 ms.
Time accumulated: CPU = 1.09269 s, elapsed = 3.25401 s.
Peak resident memory used = 131 Mbytes.

         MDL montecarlo: iteration = 34   ( 34.00% ) complete.

*****************************************************************
Transient Analysis `transient1_transient1': time = (0 s -> 40 ns)
*****************************************************************

Opening the PSFXL file test_spectre/inverter.raw/transient1_transient1.tran.tran ...
DC simulation time: CPU = 303 us, elapsed = 303.984 us.
Important parameter values:
    start = 0 s
    outputstart = 0 s
    stop = 40 ns
    step = 10 ps
    maxstep = 800 ps
    ic = all
    useprevic = no
    skipdc = no
    reltol = 1e-03
    abstol(V) = 1 uV
    abstol(I) = 1 pA
    temp = -25 C
    tnom = 27 C
    tempeffects = all
    errpreset = moderate
    method = trap
    lteratio = 3.5
    relref = sigglobal
    cmin = 0 F
    gmin = 1 pS


Output and IC/nodeset summary:
                 probe  12      
                 save   2       (current)
                 save   3       (voltage)

...............9...............8...............7...............6...............5...............4...............3...............2...............1...............0
Number of accepted tran steps =             135

Maximum value achieved for any signal of each quantity: 
V: V(Z) = 709.8 mV
I: I(VX:p) = 36.06 uA
[...]
    cmin = 0 F
    gmin = 1 pS


Output and IC/nodeset summary:
                 probe  12      
                 save   2       (current)
                 save   3       (voltage)

...............9...............8...............7...............6...............5...............4...............3...............2...............1...............0
Number of accepted tran steps =             127

Maximum value achieved for any signal of each quantity: 
V: V(Z) = 706.5 mV
I: I(VX:p) = 30.49 uA
If your circuit contains signals of the same quantity that are vastly different in size (such as high voltage circuitry combined with low voltage control circuitry), you should consider specifying global option `bin_relref=yes'.

~~~~~~~~~~~~~~~~~~~~~~~~~~~~~~~~~
Post-Transient Simulation Summary
~~~~~~~~~~~~~~~~~~~~~~~~~~~~~~~~~
   -   To further speed up simulation, consider
          add ++aps on command line
~~~~~~~~~~~~~~~~~~~~~~~~~~~~~~~~~


During simulation, the CPU load for active processors is :
         0 (83.3 %)      1 (82.1 %)      2 (83.8 %)      3 (82.9 %)
        Total: 332.2%
Initial condition solution time: CPU = 322 us, elapsed = 324.011 us.
Intrinsic tran analysis time:    CPU = 17.882 ms, elapsed = 39.4921 ms.
Total time required for tran analysis `transient1_transient1': CPU = 20.094 ms, elapsed = 41.7118 ms.
Time accumulated: CPU = 15.4067 s, elapsed = 52.5337 s.
Peak resident memory used = 136 Mbytes.

         MDL montecarlo: iteration = 92   ( 92.00% ) complete.

*****************************************************************
Transient Analysis `transient1_transient1': time = (0 s -> 40 ns)
*****************************************************************

Opening the PSFXL file test_spectre/inverter.raw/transient1_transient1.tran.tran ...
DC simulation time: CPU = 305 us, elapsed = 305.891 us.
Important parameter values:
    start = 0 s
    outputstart = 0 s
    stop = 40 ns
    step = 10 ps
    maxstep = 800 ps
    ic = all
    useprevic = no
    skipdc = no
    reltol = 1e-03
    abstol(V) = 1 uV
    abstol(I) = 1 pA
    temp = 100 C
    tnom = 27 C
    tempeffects = all
    errpreset = moderate
    method = trap
    lteratio = 3.5
    relref = sigglobal
    cmin = 0 F
    gmin = 1 pS


Output and IC/nodeset summary:
                 probe  12      
                 save   2       (current)
                 save   3       (voltage)

...............9...............8...............7...............6...............5...............4...............3...............2...............1...............0
Number of accepted tran steps =             122

Maximum value achieved for any signal of each quantity: 
V: V(Z) = 708 mV
I: I(VX:p) = 37.64 uA
If your circuit contains signals of the same quantity that are vastly different in size (such as high voltage circuitry combined with low voltage control circuitry), you should consider specifying global option `bin_relref=yes'.

~~~~~~~~~~~~~~~~~~~~~~~~~~~~~~~~~
Post-Transient Simulation Summary
~~~~~~~~~~~~~~~~~~~~~~~~~~~~~~~~~
   -   To further speed up simulation, consider
          add ++aps on command line
~~~~~~~~~~~~~~~~~~~~~~~~~~~~~~~~~


During simulation, the CPU load for active processors is :
         0 (83.3 %)      1 (82.1 %)      2 (83.8 %)      3 (82.9 %)
        Total: 332.2%
Initial condition solution time: CPU = 366 us, elapsed = 367.88 us.
Intrinsic tran analysis time:    CPU = 23.014 ms, elapsed = 54.4579 ms.
Total time required for tran analysis `transient1_transient1': CPU = 25.19 ms, elapsed = 56.648 ms.
Time accumulated: CPU = 15.4348 s, elapsed = 52.6154 s.
Peak resident memory used = 136 Mbytes.

         MDL montecarlo: iteration = 93   ( 93.00% ) complete.

*****************************************************************
Transient Analysis `transient1_transient1': time = (0 s -> 40 ns)
*****************************************************************

Opening the PSFXL file test_spectre/inverter.raw/transient1_transient1.tran.tran ...
DC simulation time: CPU = 300 us, elapsed = 300.884 us.
Important parameter values:
    start = 0 s
    outputstart = 0 s
    stop = 40 ns
    step = 10 ps
    maxstep = 800 ps
    ic = all
    useprevic = no
    skipdc = no
    reltol = 1e-03
    abstol(V) = 1 uV
    abstol(I) = 1 pA
    temp = 100 C
    tnom = 27 C
    tempeffects = all
    errpreset = moderate
    method = trap
    lteratio = 3.5
    relref = sigglobal
    cmin = 0 F
    gmin = 1 pS


Output and IC/nodeset summary:
                 probe  12      
                 save   2       (current)
                 save   3       (voltage)

...............9...............8...............7...............6...............5...............4...............3...............2...............1...............0
Number of accepted tran steps =             133

Maximum value achieved for any signal of each quantity: 
V: V(Z) = 706.8 mV
I: I(VX:p) = 28.64 uA
If your circuit contains signals of the same quantity that are vastly different in size (such as high voltage circuitry combined with low voltage control circuitry), you should consider specifying global option `bin_relref=yes'.

~~~~~~~~~~~~~~~~~~~~~~~~~~~~~~~~~
Post-Transient Simulation Summary
~~~~~~~~~~~~~~~~~~~~~~~~~~~~~~~~~
   -   To further speed up simulation, consider
          add ++aps on command line
~~~~~~~~~~~~~~~~~~~~~~~~~~~~~~~~~


During simulation, the CPU load for active processors is :
         0 (83.3 %)      1 (82.1 %)      2 (83.9 %)      3 (82.9 %)
        Total: 332.2%
Initial condition solution time: CPU = 373 us, elapsed = 375.032 us.
Intrinsic tran analysis time:    CPU = 21.721 ms, elapsed = 54.6799 ms.
Total time required for tran analysis `transient1_transient1': CPU = 24.099 ms, elapsed = 57.065 ms.
Time accumulated: CPU = 15.4622 s, elapsed = 52.7081 s.
Peak resident memory used = 136 Mbytes.

         MDL montecarlo: iteration = 94   ( 94.00% ) complete.

*****************************************************************
Transient Analysis `transient1_transient1': time = (0 s -> 40 ns)
*****************************************************************

Opening the PSFXL file test_spectre/inverter.raw/transient1_transient1.tran.tran ...
DC simulation time: CPU = 322 us, elapsed = 323.057 us.
Important parameter values:
    start = 0 s
    outputstart = 0 s
    stop = 40 ns
    step = 10 ps
    maxstep = 800 ps
    ic = all
    useprevic = no
    skipdc = no
    reltol = 1e-03
    abstol(V) = 1 uV
    abstol(I) = 1 pA
    temp = 100 C
    tnom = 27 C
    tempeffects = all
    errpreset = moderate
    method = trap
    lteratio = 3.5
    relref = sigglobal
    cmin = 0 F
    gmin = 1 pS


Output and IC/nodeset summary:
                 probe  12      
                 save   2       (current)
                 save   3       (voltage)

...............9...............8...............7...............6...............5...............4...............3...............2...............1...............0
Number of accepted tran steps =             133

Maximum value achieved for any signal of each quantity: 
V: V(Z) = 707.2 mV
I: I(VX:p) = 29.34 uA
If your circuit contains signals of the same quantity that are vastly different in size (such as high voltage circuitry combined with low voltage control circuitry), you should consider specifying global option `bin_relref=yes'.

~~~~~~~~~~~~~~~~~~~~~~~~~~~~~~~~~
Post-Transient Simulation Summary
~~~~~~~~~~~~~~~~~~~~~~~~~~~~~~~~~
   -   To further speed up simulation, consider
          add ++aps on command line
~~~~~~~~~~~~~~~~~~~~~~~~~~~~~~~~~


During simulation, the CPU load for active processors is :
         0 (83.3 %)      1 (82.1 %)      2 (83.9 %)      3 (82.9 %)
        Total: 332.2%
Initial condition solution time: CPU = 410 us, elapsed = 413.179 us.
Intrinsic tran analysis time:    CPU = 20.021 ms, elapsed = 43.1719 ms.
Total time required for tran analysis `transient1_transient1': CPU = 22.502 ms, elapsed = 45.6622 ms.
Time accumulated: CPU = 15.4881 s, elapsed = 52.7802 s.
Peak resident memory used = 136 Mbytes.

         MDL montecarlo: iteration = 95   ( 95.00% ) complete.

*****************************************************************
Transient Analysis `transient1_transient1': time = (0 s -> 40 ns)
*****************************************************************

Opening the PSFXL file test_spectre/inverter.raw/transient1_transient1.tran.tran ...
DC simulation time: CPU = 292 us, elapsed = 299.215 us.
Important parameter values:
    start = 0 s
    outputstart = 0 s
    stop = 40 ns
    step = 10 ps
    maxstep = 800 ps
    ic = all
    useprevic = no
    skipdc = no
    reltol = 1e-03
    abstol(V) = 1 uV
    abstol(I) = 1 pA
    temp = 100 C
    tnom = 27 C
    tempeffects = all
    errpreset = moderate
    method = trap
    lteratio = 3.5
    relref = sigglobal
    cmin = 0 F
    gmin = 1 pS


Output and IC/nodeset summary:
                 probe  12      
                 save   2       (current)
                 save   3       (voltage)

...............9...............8...............7...............6...............5...............4...............3...............2...............1...............0
Number of accepted tran steps =             134

Maximum value achieved for any signal of each quantity: 
V: V(Z) = 706.8 mV
I: I(VX:p) = 28.62 uA
If your circuit contains signals of the same quantity that are vastly different in size (such as high voltage circuitry combined with low voltage control circuitry), you should consider specifying global option `bin_relref=yes'.

~~~~~~~~~~~~~~~~~~~~~~~~~~~~~~~~~
Post-Transient Simulation Summary
~~~~~~~~~~~~~~~~~~~~~~~~~~~~~~~~~
   -   To further speed up simulation, consider
          add ++aps on command line
~~~~~~~~~~~~~~~~~~~~~~~~~~~~~~~~~


During simulation, the CPU load for active processors is :
         0 (83.3 %)      1 (82.1 %)      2 (83.9 %)      3 (82.9 %)
        Total: 332.2%
Initial condition solution time: CPU = 369 us, elapsed = 377.893 us.
Intrinsic tran analysis time:    CPU = 20.739 ms, elapsed = 50.4649 ms.
Total time required for tran analysis `transient1_transient1': CPU = 23.181 ms, elapsed = 52.9261 ms.
Time accumulated: CPU = 15.5144 s, elapsed = 52.8624 s.
Peak resident memory used = 136 Mbytes.

         MDL montecarlo: iteration = 96   ( 96.00% ) complete.

*****************************************************************
Transient Analysis `transient1_transient1': time = (0 s -> 40 ns)
*****************************************************************

Opening the PSFXL file test_spectre/inverter.raw/transient1_transient1.tran.tran ...
DC simulation time: CPU = 248 us, elapsed = 256.062 us.
Important parameter values:
    start = 0 s
    outputstart = 0 s
    stop = 40 ns
    step = 10 ps
    maxstep = 800 ps
    ic = all
    useprevic = no
    skipdc = no
    reltol = 1e-03
    abstol(V) = 1 uV
    abstol(I) = 1 pA
    temp = 100 C
    tnom = 27 C
    tempeffects = all
    errpreset = moderate
    method = trap
    lteratio = 3.5
    relref = sigglobal
    cmin = 0 F
    gmin = 1 pS


Output and IC/nodeset summary:
                 probe  12      
                 save   2       (current)
                 save   3       (voltage)

...............9...............8...............7...............6...............5...............4...............3...............2...............1...............0
Number of accepted tran steps =             128

Maximum value achieved for any signal of each quantity: 
V: V(Z) = 708.8 mV
I: I(VX:p) = 34.4 uA
If your circuit contains signals of the same quantity that are vastly different in size (such as high voltage circuitry combined with low voltage control circuitry), you should consider specifying global option `bin_relref=yes'.

~~~~~~~~~~~~~~~~~~~~~~~~~~~~~~~~~
Post-Transient Simulation Summary
~~~~~~~~~~~~~~~~~~~~~~~~~~~~~~~~~
   -   To further speed up simulation, consider
          add ++aps on command line
~~~~~~~~~~~~~~~~~~~~~~~~~~~~~~~~~


During simulation, the CPU load for active processors is :
         0 (83.3 %)      1 (82.1 %)      2 (83.9 %)      3 (82.9 %)
        Total: 332.2%
Initial condition solution time: CPU = 304 us, elapsed = 313.997 us.
Intrinsic tran analysis time:    CPU = 18.375 ms, elapsed = 41.549 ms.
Total time required for tran analysis `transient1_transient1': CPU = 20.54 ms, elapsed = 43.715 ms.
Time accumulated: CPU = 15.5386 s, elapsed = 52.9371 s.
Peak resident memory used = 136 Mbytes.

         MDL montecarlo: iteration = 97   ( 97.00% ) complete.

*****************************************************************
Transient Analysis `transient1_transient1': time = (0 s -> 40 ns)
*****************************************************************

Opening the PSFXL file test_spectre/inverter.raw/transient1_transient1.tran.tran ...
DC simulation time: CPU = 309 us, elapsed = 309.944 us.
Important parameter values:
    start = 0 s
    outputstart = 0 s
    stop = 40 ns
    step = 10 ps
    maxstep = 800 ps
    ic = all
    useprevic = no
    skipdc = no
    reltol = 1e-03
    abstol(V) = 1 uV
    abstol(I) = 1 pA
    temp = 100 C
    tnom = 27 C
    tempeffects = all
    errpreset = moderate
    method = trap
    lteratio = 3.5
    relref = sigglobal
    cmin = 0 F
    gmin = 1 pS


Output and IC/nodeset summary:
                 probe  12      
                 save   2       (current)
                 save   3       (voltage)

...............9...............8...............7...............6...............5...............4...............3...............2...............1...............0
Number of accepted tran steps =             125

Maximum value achieved for any signal of each quantity: 
V: V(Z) = 711.2 mV
I: I(VX:p) = 29.79 uA
If your circuit contains signals of the same quantity that are vastly different in size (such as high voltage circuitry combined with low voltage control circuitry), you should consider specifying global option `bin_relref=yes'.

~~~~~~~~~~~~~~~~~~~~~~~~~~~~~~~~~
Post-Transient Simulation Summary
~~~~~~~~~~~~~~~~~~~~~~~~~~~~~~~~~
   -   To further speed up simulation, consider
          add ++aps on command line
~~~~~~~~~~~~~~~~~~~~~~~~~~~~~~~~~


During simulation, the CPU load for active processors is :
         0 (83.3 %)      1 (82.1 %)      2 (83.9 %)      3 (82.9 %)
        Total: 332.3%
Initial condition solution time: CPU = 384 us, elapsed = 386 us.
Intrinsic tran analysis time:    CPU = 17.914 ms, elapsed = 49.0861 ms.
Total time required for tran analysis `transient1_transient1': CPU = 20.636 ms, elapsed = 51.8222 ms.
Time accumulated: CPU = 15.5624 s, elapsed = 53.0284 s.
Peak resident memory used = 136 Mbytes.

         MDL montecarlo: iteration = 98   ( 98.00% ) complete.

*****************************************************************
Transient Analysis `transient1_transient1': time = (0 s -> 40 ns)
*****************************************************************

Opening the PSFXL file test_spectre/inverter.raw/transient1_transient1.tran.tran ...
DC simulation time: CPU = 324 us, elapsed = 326.157 us.
Important parameter values:
    start = 0 s
    outputstart = 0 s
    stop = 40 ns
    step = 10 ps
    maxstep = 800 ps
    ic = all
    useprevic = no
    skipdc = no
    reltol = 1e-03
    abstol(V) = 1 uV
    abstol(I) = 1 pA
    temp = 100 C
    tnom = 27 C
    tempeffects = all
    errpreset = moderate
    method = trap
    lteratio = 3.5
    relref = sigglobal
    cmin = 0 F
    gmin = 1 pS


Output and IC/nodeset summary:
                 probe  12      
                 save   2       (current)
                 save   3       (voltage)

...............9...............8...............7...............6...............5...............4...............3...............2...............1...............0
Number of accepted tran steps =             134

Maximum value achieved for any signal of each quantity: 
V: V(Z) = 706.7 mV
I: I(VX:p) = 29.02 uA
If your circuit contains signals of the same quantity that are vastly different in size (such as high voltage circuitry combined with low voltage control circuitry), you should consider specifying global option `bin_relref=yes'.

~~~~~~~~~~~~~~~~~~~~~~~~~~~~~~~~~
Post-Transient Simulation Summary
~~~~~~~~~~~~~~~~~~~~~~~~~~~~~~~~~
   -   To further speed up simulation, consider
          add ++aps on command line
~~~~~~~~~~~~~~~~~~~~~~~~~~~~~~~~~


During simulation, the CPU load for active processors is :
         0 (83.3 %)      1 (82.1 %)      2 (83.8 %)      3 (82.9 %)
        Total: 332.2%
Initial condition solution time: CPU = 397 us, elapsed = 399.113 us.
Intrinsic tran analysis time:    CPU = 19.763 ms, elapsed = 56.931 ms.
Total time required for tran analysis `transient1_transient1': CPU = 22.797 ms, elapsed = 59.9811 ms.
Time accumulated: CPU = 15.5883 s, elapsed = 53.1201 s.
Peak resident memory used = 136 Mbytes.

         MDL montecarlo: iteration = 99   ( 99.00% ) complete.

*****************************************************************
Transient Analysis `transient1_transient1': time = (0 s -> 40 ns)
*****************************************************************

Opening the PSFXL file test_spectre/inverter.raw/transient1_transient1.tran.tran ...
DC simulation time: CPU = 291 us, elapsed = 292.063 us.
Important parameter values:
    start = 0 s
    outputstart = 0 s
    stop = 40 ns
    step = 10 ps
    maxstep = 800 ps
    ic = all
    useprevic = no
    skipdc = no
    reltol = 1e-03
    abstol(V) = 1 uV
    abstol(I) = 1 pA
    temp = 100 C
    tnom = 27 C
    tempeffects = all
    errpreset = moderate
    method = trap
    lteratio = 3.5
    relref = sigglobal
    cmin = 0 F
    gmin = 1 pS


Output and IC/nodeset summary:
                 probe  12      
                 save   2       (current)
                 save   3       (voltage)

...............9...............8...............7...............6...............5...............4...............3...............2...............1...............0
Number of accepted tran steps =             133

Maximum value achieved for any signal of each quantity: 
V: V(Z) = 707.5 mV
I: I(VX:p) = 29.79 uA
If your circuit contains signals of the same quantity that are vastly different in size (such as high voltage circuitry combined with low voltage control circuitry), you should consider specifying global option `bin_relref=yes'.

~~~~~~~~~~~~~~~~~~~~~~~~~~~~~~~~~
Post-Transient Simulation Summary
~~~~~~~~~~~~~~~~~~~~~~~~~~~~~~~~~
   -   To further speed up simulation, consider
          add ++aps on command line
~~~~~~~~~~~~~~~~~~~~~~~~~~~~~~~~~


During simulation, the CPU load for active processors is :
         0 (83.3 %)      1 (82.1 %)      2 (83.9 %)      3 (82.9 %)
        Total: 332.2%
Initial condition solution time: CPU = 359 us, elapsed = 362.158 us.
Intrinsic tran analysis time:    CPU = 19.424 ms, elapsed = 51.3611 ms.
Total time required for tran analysis `transient1_transient1': CPU = 21.888 ms, elapsed = 53.834 ms.
Time accumulated: CPU = 15.6134 s, elapsed = 53.2057 s.
Peak resident memory used = 136 Mbytes.

         MDL montecarlo: iteration = 100   ( 100.00% ) complete.

name            max             min             mean            stddev          skewness        
iint            -7.40529e-16    -1.22982e-15    -7.90146e-16    7.16773e-17     -4.1801         
total_power     -1.29593e-08    -2.15219e-08    -1.38276e-08    1.25435e-09     -4.1801         
tphl            1.98623e-11     1.09779e-11     1.36172e-11     1.59206e-12     1.08233         
tplh            2.26997e-11     1.21367e-11     1.63639e-11     2.17656e-12     0.621906        


Aggregate audit (6:14:16 PM, Wed Jun 14, 2023):
Time used: CPU = 15.6 s, elapsed = 53.3 s, util. = 29.4%.
Time spent in licensing: elapsed = 19.1 ms.
Peak memory used = 139 Mbytes.
Simulation started at: 6:13:23 PM, Wed Jun 14, 2023, ended at: 6:14:16 PM, Wed Jun 14, 2023, with elapsed time (wall clock): 53.3 s.
spectre completes with 0 errors, 0 warnings, and 1 notice.
